@<TRIPOS>MOLECULE

4278 4331 1
SMALL
USER_CHARGES
@<TRIPOS>ATOM
1	C1    35.6720    -6.9640    48.0710	C.2	1	noname	0.0000
2	C2    35.9690    -7.6670    49.3890	C.3	1	noname	0.0000
3	N1    36.5260    -6.6460    50.3040	N.3	1	noname	0.0000
4	O1    34.8210    -6.0830    48.0880	O.2	1	noname	0.0000
5	C3    34.6910    -8.2910    49.9860	C.3	1	noname	0.0000
6	C4    34.9870    -9.1080    51.2530	C.3	1	noname	0.0000
7	S1    33.5500    -9.4100    52.3110	S.3	1	noname	0.0000
8	C5    32.7810   -10.8270    51.4790	C.3	1	noname	0.0000
9	H1    35.8560    -5.8970    50.4000	H	1	noname	0.0000
10	H2    36.6970    -8.4590    49.2120	H	1	noname	0.0000
11	H3    33.9890    -7.4960    50.2360	H	1	noname	0.0000
12	H4    34.2240    -8.9420    49.2480	H	1	noname	0.0000
13	H5    35.4370   -10.0610    50.9750	H	1	noname	0.0000
14	H6    35.7080    -8.5670    51.8660	H	1	noname	0.0000
15	H7    31.8890   -11.1270    52.0280	H	1	noname	0.0000
16	H8    33.4800   -11.6630    51.4510	H	1	noname	0.0000
17	H9    32.4970   -10.5520    50.4630	H	1	noname	0.0000
18	C6    35.0120    -7.1280    45.0130	C.2	1	noname	0.0000
19	C7    36.2170    -6.5080    45.7260	C.3	1	noname	0.0000
20	N2    36.4270    -7.2110    46.9860	N.3	1	noname	0.0000
21	O2    35.0210    -8.3110    44.6780	O.2	1	noname	0.0000
22	C8    37.5300    -6.6640    44.9560	C.3	1	noname	0.0000
23	C9    38.0570    -8.0220    45.4220	C.3	1	noname	0.0000
24	C10    37.4960    -8.1920    46.8390	C.3	1	noname	0.0000
25	H10    36.0300    -5.4480    45.8970	H	1	noname	0.0000
26	H11    38.2250    -5.8810    45.2630	H	1	noname	0.0000
27	H12    37.3800    -6.6350    43.8770	H	1	noname	0.0000
28	H13    39.1470    -8.0490    45.4170	H	1	noname	0.0000
29	H14    37.6630    -8.8080    44.7770	H	1	noname	0.0000
30	H15    37.1140    -9.2050    46.9670	H	1	noname	0.0000
31	H16    38.2850    -7.9920    47.5640	H	1	noname	0.0000
32	C11    32.8920    -6.4450    42.6530	C.2	1	noname	0.0000
33	C12    32.7350    -6.7580    44.1510	C.3	1	noname	0.0000
34	N3    33.9560    -6.3400    44.8320	N.3	1	noname	0.0000
35	O3    32.6190    -5.3330    42.2060	O.2	1	noname	0.0000
36	C13    31.5160    -6.0860    44.8340	C.3	1	noname	0.0000
37	C14    30.3650    -7.0620    45.1400	C.3	1	noname	0.0000
38	C15    30.6960    -7.9540    46.3420	C.3	1	noname	0.0000
39	C16    29.0900    -6.2850    45.4680	C.3	1	noname	0.0000
40	H17    34.0040    -5.3800    45.1420	H	1	noname	0.0000
41	H18    32.6290    -7.8390    44.2460	H	1	noname	0.0000
42	H19    31.8180    -5.6150    45.7690	H	1	noname	0.0000
43	H20    31.1360    -5.2910    44.1930	H	1	noname	0.0000
44	H21    30.1770    -7.6860    44.2670	H	1	noname	0.0000
45	H22    29.8650    -8.6350    46.5280	H	1	noname	0.0000
46	H23    30.8620    -7.3420    47.2290	H	1	noname	0.0000
47	H24    31.5890    -8.5450    46.1370	H	1	noname	0.0000
48	H25    29.2470    -5.6450    46.3360	H	1	noname	0.0000
49	H26    28.8070    -5.6680    44.6150	H	1	noname	0.0000
50	H27    28.2760    -6.9800    45.6740	H	1	noname	0.0000
51	C17    31.9410    -7.5390    39.9440	C.2	1	noname	0.0000
52	C18    33.3890    -7.3700    40.4260	C.3	1	noname	0.0000
53	N4    33.4080    -7.4120    41.8890	N.3	1	noname	0.0000
54	O4    31.3740    -8.6280    40.0280	O.2	1	noname	0.0000
55	C19    34.2810    -8.4740    39.8140	C.3	1	noname	0.0000
56	C20    35.7270    -8.0540    39.4920	C.3	1	noname	0.0000
57	C21    36.6640    -8.2550    40.6830	C.3	1	noname	0.0000
58	C22    36.2540    -8.8820    38.3190	C.3	1	noname	0.0000
59	H28    33.6670    -8.2810    42.3320	H	1	noname	0.0000
60	H29    33.7430    -6.3960    40.0860	H	1	noname	0.0000
61	H30    34.2710    -9.3660    40.4400	H	1	noname	0.0000
62	H31    33.8190    -8.7590    38.8680	H	1	noname	0.0000
63	H32    35.7450    -7.0040    39.1980	H	1	noname	0.0000
64	H33    37.6680    -7.9220    40.4210	H	1	noname	0.0000
65	H34    36.6940    -9.3080    40.9630	H	1	noname	0.0000
66	H35    36.3060    -7.6680    41.5290	H	1	noname	0.0000
67	H36    37.2830    -8.5960    38.0980	H	1	noname	0.0000
68	H37    35.6480    -8.6970    37.4320	H	1	noname	0.0000
69	H38    36.2190    -9.9440    38.5630	H	1	noname	0.0000
70	C23    30.3800    -7.0740    37.2730	C.2	1	noname	0.0000
71	C24    30.1000    -6.5090    38.6730	C.3	1	noname	0.0000
72	N5    31.3560    -6.4660    39.4170	N.3	1	noname	0.0000
73	O5    30.8960    -6.3850    36.3960	O.2	1	noname	0.0000
74	C25    29.4860    -5.0960    38.6350	C.3	1	noname	0.0000
75	C26    28.8410    -4.6760    39.9710	C.3	1	noname	0.0000
76	C27    28.7050    -3.1550    40.0400	C.3	1	noname	0.0000
77	C28    27.4470    -5.2880    40.1350	C.3	1	noname	0.0000
78	H39    31.8600    -5.5910    39.4370	H	1	noname	0.0000
79	H40    29.4020    -7.1810    39.1720	H	1	noname	0.0000
80	H41    30.2690    -4.3860    38.3670	H	1	noname	0.0000
81	H42    28.7300    -5.0530    37.8510	H	1	noname	0.0000
82	H43    29.4700    -4.9950    40.8010	H	1	noname	0.0000
83	H44    28.2490    -2.8680    40.9880	H	1	noname	0.0000
84	H45    28.0840    -2.7970    39.2190	H	1	noname	0.0000
85	H46    29.6900    -2.6940    39.9740	H	1	noname	0.0000
86	H47    27.0180    -4.9720    41.0850	H	1	noname	0.0000
87	H48    26.7950    -4.9630    39.3240	H	1	noname	0.0000
88	H49    27.5110    -6.3760    40.1290	H	1	noname	0.0000
89	C29    28.8920    -8.3710    34.9550	C.2	1	noname	0.0000
90	C30    30.0190    -9.0100    35.7810	C.3	1	noname	0.0000
91	N6    30.0660    -8.3540    37.0850	N.3	1	noname	0.0000
92	O6    27.7230    -8.5920    35.2590	O.2	1	noname	0.0000
93	C31    29.7560   -10.5160    36.0040	C.3	1	noname	0.0000
94	C32    30.9580   -11.2990    36.5650	C.3	1	noname	0.0000
95	C33    30.4950   -12.6190    37.1840	C.3	1	noname	0.0000
96	C34    31.9680   -11.6190    35.4610	C.3	1	noname	0.0000
97	H50    29.7170    -8.8680    37.8810	H	1	noname	0.0000
98	H51    30.9630    -8.8690    35.2540	H	1	noname	0.0000
99	H52    29.4560   -10.9680    35.0590	H	1	noname	0.0000
100	H53    28.9130   -10.6160    36.6870	H	1	noname	0.0000
101	H54    31.4510   -10.7150    37.3430	H	1	noname	0.0000
102	H55    29.9940   -13.2300    36.4330	H	1	noname	0.0000
103	H56    31.3540   -13.1620    37.5790	H	1	noname	0.0000
104	H57    29.8040   -12.4170    38.0020	H	1	noname	0.0000
105	H58    31.4980   -12.2230    34.6840	H	1	noname	0.0000
106	H59    32.3420   -10.6950    35.0200	H	1	noname	0.0000
107	H60    32.8100   -12.1680    35.8820	H	1	noname	0.0000
108	C35    27.9330    -8.4420    32.0500	C.2	1	noname	0.0000
109	C36    28.2600    -7.1980    32.8940	C.3	1	noname	0.0000
110	N7    29.2270    -7.5870    33.9240	N.3	1	noname	0.0000
111	O7    28.8260    -8.9360    31.3540	O.2	1	noname	0.0000
112	C37    28.7980    -6.0700    31.9840	C.3	1	noname	0.0000
113	C38    28.4210    -4.6450    32.4290	C.3	1	noname	0.0000
114	C39    29.3860    -4.0990    33.4800	C.3	1	noname	0.0000
115	C40    28.4330    -3.7020    31.2250	C.3	1	noname	0.0000
116	H61    30.2030    -7.3770    33.7710	H	1	noname	0.0000
117	H62    27.3540    -6.8410    33.3840	H	1	noname	0.0000
118	H63    29.8780    -6.1590    31.8600	H	1	noname	0.0000
119	H64    28.3560    -6.2200    30.9990	H	1	noname	0.0000
120	H65    27.4120    -4.6490    32.8410	H	1	noname	0.0000
121	H66    30.3960    -4.0450    33.0740	H	1	noname	0.0000
122	H67    29.0680    -3.1030    33.7890	H	1	noname	0.0000
123	H68    29.3860    -4.7500    34.3550	H	1	noname	0.0000
124	H69    27.6960    -4.0280    30.4910	H	1	noname	0.0000
125	H70    28.1770    -2.6920    31.5460	H	1	noname	0.0000
126	H71    29.4220    -3.6930    30.7650	H	1	noname	0.0000
127	C41    26.2580    -9.4310    29.7420	C.2	1	noname	0.0000
128	C42    26.2940   -10.0150    31.1540	C.3	1	noname	0.0000
129	N8    26.6930    -8.9640    32.0720	N.3	1	noname	0.0000
130	O8    25.4090    -8.6110    29.3920	O.2	1	noname	0.0000
131	C43    24.9430   -10.5250    31.6540	C.3	1	noname	0.0000
132	C44    24.3520    -9.3220    32.3870	C.3	1	noname	0.0000
133	C45    25.5700    -8.5620    32.9060	C.3	1	noname	0.0000
134	H72    27.0110   -10.8350    31.1890	H	1	noname	0.0000
135	H73    24.3000   -10.8580    30.8400	H	1	noname	0.0000
136	H74    25.1060   -11.3340    32.3650	H	1	noname	0.0000
137	H75    23.8080    -8.6960    31.6800	H	1	noname	0.0000
138	H76    23.6940    -9.6290    33.2000	H	1	noname	0.0000
139	H77    25.7470    -8.8580    33.9390	H	1	noname	0.0000
140	H78    25.3860    -7.4900    32.8430	H	1	noname	0.0000
141	C46    26.2450   -10.2970    26.7700	C.2	1	noname	0.0000
142	C47    27.3620    -9.5570    27.5250	C.3	1	noname	0.0000
143	N9    27.2310    -9.8560    28.9410	N.3	1	noname	0.0000
144	O9    26.4370   -11.3880    26.2390	O.2	1	noname	0.0000
145	C48    28.7980    -9.9510    27.1000	C.3	1	noname	0.0000
146	C49    29.3860    -9.0730    25.9850	C.3	1	noname	0.0000
147	C50    29.8510    -7.7250    26.5460	C.3	1	noname	0.0000
148	C51    30.5990    -9.7620    25.3570	C.3	1	noname	0.0000
149	H79    27.9420   -10.4410    29.3560	H	1	noname	0.0000
150	H80    27.2200    -8.4860    27.3860	H	1	noname	0.0000
151	H81    28.8100   -10.9950    26.7860	H	1	noname	0.0000
152	H82    29.4660    -9.8800    27.9580	H	1	noname	0.0000
153	H83    28.6370    -8.9100    25.2110	H	1	noname	0.0000
154	H84    29.0090    -7.1890    26.9840	H	1	noname	0.0000
155	H85    30.2640    -7.1160    25.7420	H	1	noname	0.0000
156	H86    30.6140    -7.8740    27.3100	H	1	noname	0.0000
157	H87    31.0150    -9.1310    24.5720	H	1	noname	0.0000
158	H88    30.2930   -10.7140    24.9220	H	1	noname	0.0000
159	H89    31.3600    -9.9440    26.1150	H	1	noname	0.0000
160	C52    24.1980    -9.9240    24.5250	C.2	1	noname	0.0000
161	C53    23.9160   -10.2270    25.9960	C.3	1	noname	0.0000
162	N10    25.0380    -9.7330    26.7840	N.3	1	noname	0.0000
163	O10    23.9260    -8.8330    24.0300	O.2	1	noname	0.0000
164	C54    22.6000    -9.6040    26.5000	C.3	1	noname	0.0000
165	C55    22.0500   -10.3200    27.7530	C.3	1	noname	0.0000
166	C56    21.6560    -9.3210    28.8380	C.3	1	noname	0.0000
167	C57    20.8220   -11.1660    27.4030	C.3	1	noname	0.0000
168	H90    24.9100    -8.9060    27.3490	H	1	noname	0.0000
169	H91    23.8460   -11.3100    26.1010	H	1	noname	0.0000
170	H92    22.7680    -8.5470    26.7070	H	1	noname	0.0000
171	H93    21.8570    -9.6550    25.7040	H	1	noname	0.0000
172	H94    22.8130   -10.9770    28.1710	H	1	noname	0.0000
173	H95    20.8910    -8.6410    28.4630	H	1	noname	0.0000
174	H96    21.2710    -9.8510    29.7090	H	1	noname	0.0000
175	H97    22.5320    -8.7460    29.1380	H	1	noname	0.0000
176	H98    21.0880   -11.9000    26.6420	H	1	noname	0.0000
177	H99    20.4730   -11.6920    28.2910	H	1	noname	0.0000
178	H100    20.0220   -10.5290    27.0270	H	1	noname	0.0000
179	C58    23.1850   -11.2430    21.9760	C.2	1	noname	0.0000
180	C59    24.6480   -11.0060    22.3620	C.3	1	noname	0.0000
181	N11    24.7370   -10.9150    23.8170	N.3	1	noname	0.0000
182	O11    22.8000   -12.3160    21.5180	O.2	1	noname	0.0000
183	C60    25.5700   -12.1160    21.8340	C.3	1	noname	0.0000
184	C61    27.0390   -11.8330    21.7740	C.2	1	noname	0.0000
185	C62    27.7080   -10.8330    22.3930	C.2	1	noname	0.0000
186	C63    28.0430   -12.5730    21.0150	C.2	1	noname	0.0000
187	C64    29.3120   -11.9550    21.2180	C.2	1	noname	0.0000
188	C65    28.0030   -13.7070    20.1740	C.2	1	noname	0.0000
189	C66    30.4840   -12.4350    20.6170	C.2	1	noname	0.0000
190	C67    29.1740   -14.1990    19.5660	C.2	1	noname	0.0000
191	C68    30.4110   -13.5670    19.7860	C.2	1	noname	0.0000
192	N12    29.0490   -10.9000    22.0650	N.3	1	noname	0.0000
193	H101    25.0750   -11.7220    24.3220	H	1	noname	0.0000
194	H102    24.9530   -10.0610    21.9140	H	1	noname	0.0000
195	H103    25.2690   -12.3390    20.8100	H	1	noname	0.0000
196	H104    25.4130   -13.0220    22.4190	H	1	noname	0.0000
197	H105    27.2580   -10.0940    23.0400	H	1	noname	0.0000
198	H106    29.7390   -10.2470    22.4100	H	1	noname	0.0000
199	H107    27.0570   -14.1990    20.0010	H	1	noname	0.0000
200	H108    31.4290   -11.9420    20.7920	H	1	noname	0.0000
201	H109    29.1220   -15.0680    18.9270	H	1	noname	0.0000
202	H110    31.3030   -13.9510    19.3140	H	1	noname	0.0000
203	C69    21.7090    -9.7730    19.9550	C.2	1	noname	0.0000
204	C70    21.1620   -10.1020    21.3420	C.3	1	noname	0.0000
205	N13    22.3410   -10.2310    22.1680	N.3	1	noname	0.0000
206	O12    22.1020    -8.6380    19.6880	O.2	1	noname	0.0000
207	C71    20.2330    -9.0270    21.9180	C.3	1	noname	0.0000
208	H111    22.6950    -9.3960    22.6130	H	1	noname	0.0000
209	H112    20.6210   -11.0470    21.3040	H	1	noname	0.0000
210	H113    19.9150    -9.3130    22.9210	H	1	noname	0.0000
211	H114    20.7490    -8.0680    21.9650	H	1	noname	0.0000
212	H115    19.3550    -8.9250    21.2810	H	1	noname	0.0000
213	C72    20.8700    -9.6800    17.2550	C.2	1	noname	0.0000
214	C73    22.0120   -10.5850    17.6810	C.3	1	noname	0.0000
215	N14    21.8410   -10.7960    19.1070	N.3	1	noname	0.0000
216	O13    19.7270   -10.1260    17.1870	O.2	1	noname	0.0000
217	H116    21.6260   -11.7250    19.4400	H	1	noname	0.0000
218	H117    21.9420   -11.5300    17.1420	H	1	noname	0.0000
219	H118    22.9710   -10.1100    17.4770	H	1	noname	0.0000
220	C74    19.8580    -7.8510    15.2120	C.2	1	noname	0.0000
221	C75    20.2200    -7.4120    16.6260	C.3	1	noname	0.0000
222	N15    21.1680    -8.3920    17.0960	N.3	1	noname	0.0000
223	O14    20.6020    -7.6110    14.2610	O.2	1	noname	0.0000
224	C76    20.8540    -6.0170    16.7050	C.3	1	noname	0.0000
225	H119    22.0920    -8.0760    17.3530	H	1	noname	0.0000
226	H120    19.3260    -7.4310    17.2500	H	1	noname	0.0000
227	H121    21.7630    -5.9790    16.1030	H	1	noname	0.0000
228	H122    20.1480    -5.2770    16.3260	H	1	noname	0.0000
229	H123    21.0960    -5.7780    17.7400	H	1	noname	0.0000
230	C77    17.7700    -7.3160    13.3860	C.2	1	noname	0.0000
231	C78    18.1020    -8.7410    13.8020	C.3	1	noname	0.0000
232	N16    18.7560    -8.5870    15.0830	N.3	1	noname	0.0000
233	O15    16.9970    -6.6380    14.0610	O.2	1	noname	0.0000
234	C79    16.8580    -9.6340    13.9370	C.3	1	noname	0.0000
235	C80    17.1750   -11.1060    14.2580	C.3	1	noname	0.0000
236	C81    15.8730   -11.8660    14.5070	C.3	1	noname	0.0000
237	C82    17.9210   -11.8020    13.1150	C.3	1	noname	0.0000
238	H124    18.2680    -8.8730    15.9200	H	1	noname	0.0000
239	H125    18.7940    -9.1690    13.0770	H	1	noname	0.0000
240	H126    16.2960    -9.5900    13.0040	H	1	noname	0.0000
241	H127    16.2220    -9.2270    14.7240	H	1	noname	0.0000
242	H128    17.7800   -11.1640    15.1630	H	1	noname	0.0000
243	H129    15.3340   -11.4050    15.3350	H	1	noname	0.0000
244	H130    16.0940   -12.9010    14.7690	H	1	noname	0.0000
245	H131    15.2470   -11.8430    13.6150	H	1	noname	0.0000
246	H132    18.9100   -11.3620    12.9910	H	1	noname	0.0000
247	H133    17.3580   -11.7060    12.1860	H	1	noname	0.0000
248	H134    18.0480   -12.8590    13.3510	H	1	noname	0.0000
249	C83    16.7570    -5.4160    11.4450	C.2	1	noname	0.0000
250	C84    18.2320    -5.4990    11.8450	C.3	1	noname	0.0000
251	N17    18.4630    -6.8310    12.3600	N.3	1	noname	0.0000
252	O16    16.3020    -6.1540    10.5700	O.2	1	noname	0.0000
253	C85    19.1930    -5.2370    10.6810	C.3	1	noname	0.0000
254	H135    19.1680    -7.4080    11.9240	H	1	noname	0.0000
255	H136    18.4270    -4.7720    12.6330	H	1	noname	0.0000
256	H137    18.9970    -4.2480    10.2690	H	1	noname	0.0000
257	H138    20.2220    -5.2780    11.0380	H	1	noname	0.0000
258	H139    19.0480    -5.9890     9.9050	H	1	noname	0.0000
259	C86    14.5720    -3.7210    10.3820	C.2	1	noname	0.0000
260	C87    14.6230    -4.2910    11.8030	C.3	1	noname	0.0000
261	N18    16.0100    -4.5630    12.1390	N.3	1	noname	0.0000
262	O17    15.4050    -2.8910    10.0030	O.2	1	noname	0.0000
263	C88    14.0300    -3.3500    12.8570	C.3	1	noname	0.0000
264	C89    12.5160    -3.1590    12.6920	C.3	1	noname	0.0000
265	C90    11.8890    -2.3360    13.8310	C.2	1	noname	0.0000
266	O18    10.6430    -2.2240    13.8270	O.2	1	noname	0.0000
267	O19    12.6470    -1.8290    14.6890	O.3	1	noname	0.0000
268	H140    16.4190    -4.0520    12.9080	H	1	noname	0.0000
269	H141    14.0700    -5.2300    11.8260	H	1	noname	0.0000
270	H142    14.2200    -3.7820    13.8400	H	1	noname	0.0000
271	H143    14.5290    -2.3820    12.7970	H	1	noname	0.0000
272	H144    12.3250    -2.6600    11.7430	H	1	noname	0.0000
273	H145    12.0450    -4.1420    12.6580	H	1	noname	0.0000
274	C91    12.9700    -2.2490     8.2990	C.2	1	noname	0.0000
275	C92    13.4530    -3.6890     8.2100	C.3	1	noname	0.0000
276	N19    13.6320    -4.2040     9.5690	N.3	1	noname	0.0000
277	O20    11.9360    -1.9830     8.9060	O.2	1	noname	0.0000
278	C93    12.4820    -4.5480     7.3870	C.3	1	noname	0.0000
279	C94    12.1910    -3.9030     6.0240	C.3	1	noname	0.0000
280	C95    13.0590    -5.9490     7.1490	C.3	1	noname	0.0000
281	H146    12.9530    -4.8540     9.9380	H	1	noname	0.0000
282	H147    14.4190    -3.6910     7.7040	H	1	noname	0.0000
283	H148    11.5450    -4.6500     7.9350	H	1	noname	0.0000
284	H149    11.5120    -3.0600     6.1550	H	1	noname	0.0000
285	H150    13.1150    -3.5370     5.5760	H	1	noname	0.0000
286	H151    11.7200    -4.6220     5.3530	H	1	noname	0.0000
287	H152    13.9930    -5.8760     6.5920	H	1	noname	0.0000
288	H153    13.2560    -6.4420     8.1010	H	1	noname	0.0000
289	H154    12.3450    -6.5510     6.5860	H	1	noname	0.0000
290	C96    13.3340     0.5790     6.1760	C.2	1	noname	0.0000
291	C97    13.3160     0.0770     7.6120	C.3	1	noname	0.0000
292	N20    13.6920    -1.3310     7.6610	N.3	1	noname	0.0000
293	O21    14.2440     0.2910     5.3940	O.2	1	noname	0.0000
294	C98    14.2120     0.9400     8.5090	C.3	1	noname	0.0000
295	C99    14.1440     0.5410     9.9900	C.3	1	noname	0.0000
296	C100    15.0900     1.3490    10.8710	C.2	1	noname	0.0000
297	O22    15.8640     2.1880    10.4300	O.2	1	noname	0.0000
298	N21    15.0670     1.1200    12.1660	N.3	1	noname	0.0000
299	H155    14.5380    -1.6150     7.1870	H	1	noname	0.0000
300	H156    12.2960     0.1860     7.9810	H	1	noname	0.0000
301	H157    13.8990     1.9800     8.4170	H	1	noname	0.0000
302	H158    15.2420     0.8680     8.1610	H	1	noname	0.0000
303	H159    14.4090    -0.5100    10.1050	H	1	noname	0.0000
304	H160    13.1250     0.6740    10.3520	H	1	noname	0.0000
305	H161    15.6840     1.6760    12.7400	H	1	noname	0.0000
306	H162    14.4360     0.4340    12.5540	H	1	noname	0.0000
307	C101    11.9460     3.5490     4.9990	C.2	1	noname	0.0000
308	C102    12.1580     2.0860     4.6150	C.3	1	noname	0.0000
309	N22    12.3050     1.3510     5.8550	N.3	1	noname	0.0000
310	O23    10.9620     3.8760     5.6610	O.2	1	noname	0.0000
311	C103    10.9700     1.5060     3.8360	C.3	1	noname	0.0000
312	C104    11.1230     0.0670     3.3150	C.3	1	noname	0.0000
313	C105     9.8890    -0.3100     2.4980	C.3	1	noname	0.0000
314	C106    12.3420    -0.1190     2.4130	C.3	1	noname	0.0000
315	H163    11.6100     1.5370     6.5640	H	1	noname	0.0000
316	H164    13.0610     2.0130     4.0090	H	1	noname	0.0000
317	H165    10.7760     2.1650     2.9890	H	1	noname	0.0000
318	H166    10.0930     1.5300     4.4820	H	1	noname	0.0000
319	H167    11.2030    -0.6200     4.1570	H	1	noname	0.0000
320	H168     9.0000    -0.2130     3.1210	H	1	noname	0.0000
321	H169     9.7850     0.3530     1.6390	H	1	noname	0.0000
322	H170     9.9620    -1.3440     2.1610	H	1	noname	0.0000
323	H171    13.2480    -0.0150     3.0100	H	1	noname	0.0000
324	H172    12.3370     0.6290     1.6200	H	1	noname	0.0000
325	H173    12.3270    -1.1190     1.9800	H	1	noname	0.0000
326	C107    12.7550     6.6890     3.8040	C.2	1	noname	0.0000
327	C108    12.9140     5.8090     5.0380	C.3	1	noname	0.0000
328	N23    12.9110     4.4000     4.6550	N.3	1	noname	0.0000
329	O24    13.7100     6.8880     3.0440	O.2	1	noname	0.0000
330	C109    14.1950     6.1180     5.8330	C.3	1	noname	0.0000
331	C110    14.2890     7.5820     6.3100	C.3	1	noname	0.0000
332	C111    13.1710     7.9490     7.2880	C.3	1	noname	0.0000
333	C112    15.6300     7.8050     7.0090	C.3	1	noname	0.0000
334	H174    13.7130     4.0360     4.1620	H	1	noname	0.0000
335	H175    12.0620     6.0020     5.6890	H	1	noname	0.0000
336	H176    15.0570     5.8980     5.2040	H	1	noname	0.0000
337	H177    14.2350     5.4600     6.7010	H	1	noname	0.0000
338	H178    14.2430     8.2540     5.4530	H	1	noname	0.0000
339	H179    13.3270     8.9600     7.6650	H	1	noname	0.0000
340	H180    12.2080     7.9320     6.7780	H	1	noname	0.0000
341	H181    13.1530     7.2490     8.1230	H	1	noname	0.0000
342	H182    16.4440     7.5800     6.3200	H	1	noname	0.0000
343	H183    15.7110     8.8460     7.3240	H	1	noname	0.0000
344	H184    15.7070     7.1580     7.8830	H	1	noname	0.0000
345	C113    11.8390     9.5740     2.8940	C.2	1	noname	0.0000
346	C114    11.2700     8.1910     2.5720	C.3	1	noname	0.0000
347	N24    11.5510     7.2180     3.6140	N.3	1	noname	0.0000
348	O25    11.8310    10.0480     4.0280	O.2	1	noname	0.0000
349	C115     9.7730     8.3000     2.2570	C.3	1	noname	0.0000
350	C116     9.1660     6.9920     1.7400	C.3	1	noname	0.0000
351	C117     8.5800     6.0900     2.8330	C.2	1	noname	0.0000
352	O26     7.6960     5.2860     2.4710	O.2	1	noname	0.0000
353	O27     8.9400     6.2220     4.0260	O.3	1	noname	0.0000
354	H185    10.7760     6.9150     4.1870	H	1	noname	0.0000
355	H186    11.7570     7.8290     1.6660	H	1	noname	0.0000
356	H187     9.2220     8.6630     3.1250	H	1	noname	0.0000
357	H188     9.6620     9.0420     1.4670	H	1	noname	0.0000
358	H189     9.9080     6.4520     1.1520	H	1	noname	0.0000
359	H190     8.3520     7.2640     1.0680	H	1	noname	0.0000
360	C118    12.4130    12.3770     0.6050	C.2	1	noname	0.0000
361	C119    12.7060    11.6630     1.9230	C.3	1	noname	0.0000
362	N25    12.3050    10.2620     1.8590	N.3	1	noname	0.0000
363	O28    12.1150    11.7540    -0.4210	O.2	1	noname	0.0000
364	C120    14.1830    11.7800     2.3070	C.3	1	noname	0.0000
365	O29    14.9950    11.2260     1.2980	O.3	1	noname	0.0000
366	H191    12.3040     9.8130     0.9540	H	1	noname	0.0000
367	H192    12.1220    12.1560     2.6990	H	1	noname	0.0000
368	H193    14.4410    12.8310     2.4370	H	1	noname	0.0000
369	H194    14.3590    11.2610     3.2480	H	1	noname	0.0000
370	H195    15.0120    10.2760     1.4370	H	1	noname	0.0000
371	C121    10.4450    14.8370    -0.0910	C.2	1	noname	0.0000
372	C122    11.9160    14.5620    -0.3890	C.3	1	noname	0.0000
373	N26    12.4860    13.7050     0.6420	N.3	1	noname	0.0000
374	O30    10.0250    14.8200     1.0640	O.2	1	noname	0.0000
375	H196    12.6950    14.1380     1.5300	H	1	noname	0.0000
376	H197    12.4450    15.5150    -0.4150	H	1	noname	0.0000
377	H198    12.0080    14.0890    -1.3670	H	1	noname	0.0000
378	C123     8.3080    17.0900    -0.6410	C.2	1	noname	0.0000
379	C124     8.3060    15.6010    -0.9780	C.3	1	noname	0.0000
380	N27     9.6650    15.0950    -1.1330	N.3	1	noname	0.0000
381	O31     9.2680    17.8040    -0.9370	O.2	1	noname	0.0000
382	H199    10.0800    15.1090    -2.0540	H	1	noname	0.0000
383	H200     7.7930    15.0570    -0.1840	H	1	noname	0.0000
384	H201     7.7510    15.4580    -1.9050	H	1	noname	0.0000
385	C125     6.0520    19.6600    -0.7190	C.2	1	noname	0.0000
386	C126     6.9970    18.9650     0.2580	C.3	1	noname	0.0000
387	N28     7.2180    17.5580    -0.0480	N.3	1	noname	0.0000
388	O32     5.3360    19.0280    -1.5000	O.2	1	noname	0.0000
389	H202     6.4920    16.9030     0.2040	H	1	noname	0.0000
390	H203     7.9460    19.5000     0.2660	H	1	noname	0.0000
391	H204     6.5670    19.0410     1.2570	H	1	noname	0.0000
392	C127     5.7520    22.2640    -2.7050	C.2	1	noname	0.0000
393	C128     5.1220    21.8540    -1.3720	C.3	1	noname	0.0000
394	N29     6.0200    20.9880    -0.6160	N.3	1	noname	0.0000
395	O33     6.8620    22.7920    -2.7410	O.2	1	noname	0.0000
396	C129     4.7610    23.0710    -0.5020	C.3	1	noname	0.0000
397	C130     3.8530    24.1070    -1.1900	C.3	1	noname	0.0000
398	C131     2.4690    23.5550    -1.5250	C.3	1	noname	0.0000
399	C132     3.6640    25.3120    -0.2700	C.3	1	noname	0.0000
400	H205     6.6770    21.4330     0.0080	H	1	noname	0.0000
401	H206     4.2060    21.3000    -1.5760	H	1	noname	0.0000
402	H207     5.6870    23.5690    -0.2150	H	1	noname	0.0000
403	H208     4.2720    22.7200     0.4070	H	1	noname	0.0000
404	H209     4.3230    24.4590    -2.1090	H	1	noname	0.0000
405	H210     1.8720    24.3500    -1.9720	H	1	noname	0.0000
406	H211     2.5510    22.7500    -2.2560	H	1	noname	0.0000
407	H212     1.9800    23.1900    -0.6220	H	1	noname	0.0000
408	H213     3.0460    26.0620    -0.7640	H	1	noname	0.0000
409	H214     4.6330    25.7560    -0.0420	H	1	noname	0.0000
410	H215     3.1830    25.0050     0.6590	H	1	noname	0.0000
411	C133     4.2130    23.1720    -5.8570	C.2	1	noname	0.0000
412	C134     5.3990    22.5470    -5.1280	C.3	1	noname	0.0000
413	N30     5.0070    22.0960    -3.7920	N.3	1	noname	0.0000
414	O34     3.0500    22.8810    -5.5750	O.2	1	noname	0.0000
415	C135     6.0530    21.3890    -5.9000	C.3	1	noname	0.0000
416	C136     5.0490    20.3010    -6.2750	C.3	1	noname	0.0000
417	C137     6.7940    21.8450    -7.1620	C.3	1	noname	0.0000
418	H216     4.1200    21.6230    -3.6970	H	1	noname	0.0000
419	H217     6.1540    23.3260    -5.0150	H	1	noname	0.0000
420	H218     6.8000    20.9380    -5.2470	H	1	noname	0.0000
421	H219     4.3480    20.6570    -7.0300	H	1	noname	0.0000
422	H220     5.6120    19.4530    -6.6640	H	1	noname	0.0000
423	H221     4.5010    19.9720    -5.3920	H	1	noname	0.0000
424	H222     7.5040    22.6330    -6.9080	H	1	noname	0.0000
425	H223     6.0860    22.2040    -7.9090	H	1	noname	0.0000
426	H224     7.3470    21.0020    -7.5740	H	1	noname	0.0000
427	C138     3.0840    23.6160    -8.7640	C.2	1	noname	0.0000
428	C139     3.5080    24.6330    -7.6880	C.3	1	noname	0.0000
429	N31     4.5110    24.0610    -6.7990	N.3	1	noname	0.0000
430	O35     3.9130    22.7960    -9.1810	O.2	1	noname	0.0000
431	C140     4.0640    25.9200    -8.3230	C.3	1	noname	0.0000
432	C141     4.3230    27.0350    -7.2930	C.3	1	noname	0.0000
433	C142     3.0370    27.4000    -6.5740	C.2	1	noname	0.0000
434	O36     2.0560    27.7370    -7.2050	O.2	1	noname	0.0000
435	N32     2.9700    27.2410    -5.2700	N.3	1	noname	0.0000
436	H225     5.4840    24.2200    -7.0180	H	1	noname	0.0000
437	H226     2.6320    24.8860    -7.0900	H	1	noname	0.0000
438	H227     3.3500    26.2860    -9.0620	H	1	noname	0.0000
439	H228     4.9940    25.6930    -8.8440	H	1	noname	0.0000
440	H229     4.6950    27.9210    -7.8070	H	1	noname	0.0000
441	H230     5.0780    26.7150    -6.5750	H	1	noname	0.0000
442	H231     3.7850    26.9160    -4.7700	H	1	noname	0.0000
443	H232     2.0540    26.9850    -4.9280	H	1	noname	0.0000
444	C143     2.3770    23.0640   -11.6020	C.2	1	noname	0.0000
445	C144     1.4080    22.9000   -10.4210	C.3	1	noname	0.0000
446	N33     1.8310    23.6710    -9.2540	N.3	1	noname	0.0000
447	O37     2.8890    24.1520   -11.8580	O.2	1	noname	0.0000
448	C145     0.0050    23.4070   -10.7650	C.3	1	noname	0.0000
449	C146    -0.5250    23.9370    -9.4330	C.3	1	noname	0.0000
450	C147     0.7290    24.4840    -8.7540	C.3	1	noname	0.0000
451	H233     1.3520    21.8480   -10.1400	H	1	noname	0.0000
452	H234     0.0680    24.2310   -11.4750	H	1	noname	0.0000
453	H235    -0.6260    22.6100   -11.1600	H	1	noname	0.0000
454	H236    -1.2760    24.7150    -9.5750	H	1	noname	0.0000
455	H237    -0.9340    23.1160    -8.8440	H	1	noname	0.0000
456	H238     0.8840    25.5240    -9.0420	H	1	noname	0.0000
457	H239     0.6270    24.4000    -7.6720	H	1	noname	0.0000
458	C148     5.0950    21.7200   -12.9090	C.2	1	noname	0.0000
459	C149     3.6500    21.9110   -13.3860	C.3	1	noname	0.0000
460	N34     2.6540    21.9720   -12.3120	N.3	1	noname	0.0000
461	O38     5.9500    21.3690   -13.7210	O.2	1	noname	0.0000
462	H240     2.2010    21.1110   -12.0400	H	1	noname	0.0000
463	H241     3.3980    21.0840   -14.0500	H	1	noname	0.0000
464	H242     3.6100    22.8350   -13.9620	H	1	noname	0.0000
465	C150     7.0910    20.1880   -10.9530	C.2	1	noname	0.0000
466	C151     6.6870    21.6630   -11.0290	C.3	1	noname	0.0000
467	N35     5.3690    21.8880   -11.6120	N.3	1	noname	0.0000
468	O39     6.3840    19.2820   -11.4070	O.2	1	noname	0.0000
469	H243     4.6290    22.1920   -10.9960	H	1	noname	0.0000
470	H244     7.4340    22.1900   -11.6220	H	1	noname	0.0000
471	H245     6.7020    22.0830   -10.0230	H	1	noname	0.0000
472	C152     9.3550    18.4030    -8.7860	C.2	1	noname	0.0000
473	C153     8.8500    18.6290   -10.2010	C.3	1	noname	0.0000
474	N36     8.2590    19.9560   -10.3570	N.3	1	noname	0.0000
475	O40     9.8940    19.3170    -8.1640	O.2	1	noname	0.0000
476	C154    10.0040    18.4260   -11.1890	C.3	1	noname	0.0000
477	O41    11.0300    19.3760   -10.9510	O.3	1	noname	0.0000
478	H246     8.7850    20.7380    -9.9960	H	1	noname	0.0000
479	H247     8.0830    17.8820   -10.4060	H	1	noname	0.0000
480	H248     9.6380    18.5330   -12.2090	H	1	noname	0.0000
481	H249    10.4100    17.4220   -11.0690	H	1	noname	0.0000
482	H250    11.0920    19.5340   -10.0060	H	1	noname	0.0000
483	C155    10.5590    15.3800    -7.3080	C.2	1	noname	0.0000
484	C156     9.8560    16.7100    -7.0680	C.3	1	noname	0.0000
485	N37     9.2640    17.1650    -8.3200	N.3	1	noname	0.0000
486	O42    10.2000    14.6180    -8.2070	O.2	1	noname	0.0000
487	C157     8.7730    16.5730    -5.9830	C.3	1	noname	0.0000
488	C158     8.2520    17.8940    -5.3940	C.3	1	noname	0.0000
489	C159     7.0360    17.6010    -4.5190	C.3	1	noname	0.0000
490	C160     9.3080    18.5910    -4.5370	C.3	1	noname	0.0000
491	H251     8.8960    16.4570    -8.9390	H	1	noname	0.0000
492	H252    10.6120    17.4220    -6.7350	H	1	noname	0.0000
493	H253     7.9310    16.0450    -6.4300	H	1	noname	0.0000
494	H254     9.1540    15.9620    -5.1650	H	1	noname	0.0000
495	H255     7.9420    18.5610    -6.1990	H	1	noname	0.0000
496	H256     6.6470    18.5290    -4.1000	H	1	noname	0.0000
497	H257     7.3050    16.9330    -3.7010	H	1	noname	0.0000
498	H258     6.2560    17.1430    -5.1270	H	1	noname	0.0000
499	H259     9.6560    17.9300    -3.7440	H	1	noname	0.0000
500	H260     8.8740    19.4800    -4.0800	H	1	noname	0.0000
501	H261    10.1480    18.9080    -5.1560	H	1	noname	0.0000
502	C161    12.0160    13.1890    -5.0520	C.2	1	noname	0.0000
503	C162    12.1930    13.7770    -6.4360	C.3	1	noname	0.0000
504	N38    11.5490    15.0850    -6.4710	N.3	1	noname	0.0000
505	O43    12.4940    13.7640    -4.0770	O.2	1	noname	0.0000
506	C163    13.6580    13.9100    -6.8560	C.3	1	noname	0.0000
507	C164    14.3220    12.5320    -6.9670	C.3	1	noname	0.0000
508	C165    15.7440    12.6900    -7.5030	C.3	1	noname	0.0000
509	C166    17.6840    11.1980    -7.9600	C.2	1	noname	0.0000
510	N39    16.4460    11.3950    -7.5460	N.3	1	noname	0.0000
511	N40    18.4270    12.1830    -8.3850	N.3	1	noname	0.0000
512	N41    18.2010    10.0010    -7.9480	N.2	1	noname	0.0000
513	H262    11.7780    15.7450    -5.7420	H	1	noname	0.0000
514	H263    11.7020    13.1100    -7.1450	H	1	noname	0.0000
515	H264    14.1960    14.5200    -6.1310	H	1	noname	0.0000
516	H265    13.7010    14.4060    -7.8260	H	1	noname	0.0000
517	H266    14.3560    12.0620    -5.9840	H	1	noname	0.0000
518	H267    13.7480    11.9030    -7.6470	H	1	noname	0.0000
519	H268    15.6890    13.1130    -8.5060	H	1	noname	0.0000
520	H269    16.2870    13.3780    -6.8550	H	1	noname	0.0000
521	H270    15.9290    10.5840    -7.2380	H	1	noname	0.0000
522	H271    18.0190    13.1060    -8.4190	H	1	noname	0.0000
523	H272    19.3680    12.0220    -8.7150	H	1	noname	0.0000
524	H273    17.6840     9.2300    -7.5520	H	1	noname	0.0000
525	H274    19.1390     9.8410    -8.2870	H	1	noname	0.0000
526	C167    12.4480    10.2630    -3.7720	C.2	1	noname	0.0000
527	C168    11.2850    11.2490    -3.7690	C.3	1	noname	0.0000
528	N42    11.3410    12.0500    -4.9840	N.3	1	noname	0.0000
529	O44    12.8930     9.8010    -4.8310	O.2	1	noname	0.0000
530	C169     9.9290    10.5380    -3.6180	C.3	1	noname	0.0000
531	C170     8.6890    11.4270    -3.8190	C.3	1	noname	0.0000
532	C171     7.4270    10.6310    -3.5050	C.3	1	noname	0.0000
533	C172     8.7210    12.6660    -2.9280	C.3	1	noname	0.0000
534	H275    10.9880    11.6460    -5.8390	H	1	noname	0.0000
535	H276    11.4090    11.9000    -2.9030	H	1	noname	0.0000
536	H277     9.8870    10.1080    -2.6180	H	1	noname	0.0000
537	H278     9.8830     9.7110    -4.3260	H	1	noname	0.0000
538	H279     8.6390    11.7470    -4.8600	H	1	noname	0.0000
539	H280     7.4110    10.3530    -2.4510	H	1	noname	0.0000
540	H281     7.3980     9.7210    -4.1040	H	1	noname	0.0000
541	H282     6.5420    11.2250    -3.7320	H	1	noname	0.0000
542	H283     7.7770    13.2030    -3.0220	H	1	noname	0.0000
543	H284     9.5310    13.3250    -3.2400	H	1	noname	0.0000
544	H285     8.8630    12.3740    -1.8880	H	1	noname	0.0000
545	C173    13.4240     7.9740    -1.1940	C.2	1	noname	0.0000
546	C174    13.8450     8.8100    -2.3900	C.3	1	noname	0.0000
547	N43    12.9270     9.9250    -2.5840	N.3	1	noname	0.0000
548	O45    12.7640     8.4860    -0.2980	O.2	1	noname	0.0000
549	C175    15.2910     9.2920    -2.2930	C.3	1	noname	0.0000
550	O46    15.5960     9.8970    -1.0630	O.3	1	noname	0.0000
551	H286    12.5210    10.3430    -1.7600	H	1	noname	0.0000
552	H287    13.7780     8.1660    -3.2670	H	1	noname	0.0000
553	H288    15.4850    10.0060    -3.0940	H	1	noname	0.0000
554	H289    15.9510     8.4350    -2.4270	H	1	noname	0.0000
555	H290    14.9400    10.5550    -0.8210	H	1	noname	0.0000
556	C176    14.7430     4.9140     0.1280	C.2	1	noname	0.0000
557	C177    13.4980     5.7620    -0.1190	C.3	1	noname	0.0000
558	N44    13.7740     6.6960    -1.2000	N.3	1	noname	0.0000
559	O47    15.1530     4.1410    -0.7430	O.2	1	noname	0.0000
560	C178    12.2570     4.9480    -0.4810	C.3	1	noname	0.0000
561	S2    11.9690     3.4620     0.5030	S.3	1	noname	0.0000
562	H291    14.2710     6.3390    -2.0030	H	1	noname	0.0000
563	H292    13.2710     6.3110     0.7950	H	1	noname	0.0000
564	H293    11.3910     5.6020    -0.3710	H	1	noname	0.0000
565	H294    12.3090     4.6520    -1.5290	H	1	noname	0.0000
566	C179    16.0460     3.0690     2.4460	C.2	1	noname	0.0000
567	C180    16.5210     4.3340     1.7250	C.3	1	noname	0.0000
568	N45    15.3660     5.1070     1.2890	N.3	1	noname	0.0000
569	O48    15.2170     3.1500     3.3520	O.2	1	noname	0.0000
570	C181    17.4090     5.2110     2.6130	C.3	1	noname	0.0000
571	H295    14.9430     5.7330     1.9600	H	1	noname	0.0000
572	H296    17.1080     4.0350     0.8560	H	1	noname	0.0000
573	H297    18.2790     4.6400     2.9380	H	1	noname	0.0000
574	H298    17.7450     6.0840     2.0530	H	1	noname	0.0000
575	H299    16.8510     5.5380     3.4900	H	1	noname	0.0000
576	C182    17.2930    -0.0150     3.4220	C.2	1	noname	0.0000
577	C183    16.1830     0.6160     2.5720	C.3	1	noname	0.0000
578	N46    16.5700     1.9130     2.0410	N.3	1	noname	0.0000
579	O49    18.4630    -0.0420     3.0310	O.2	1	noname	0.0000
580	C184    15.7830    -0.2850     1.4020	C.3	1	noname	0.0000
581	H300    17.2440     1.9180     1.2890	H	1	noname	0.0000
582	H301    15.3080     0.7390     3.2110	H	1	noname	0.0000
583	H302    15.4510    -1.2460     1.7930	H	1	noname	0.0000
584	H303    14.9760     0.1770     0.8340	H	1	noname	0.0000
585	H304    16.6450    -0.4400     0.7540	H	1	noname	0.0000
586	C185    17.0850    -2.5130     6.1070	C.2	1	noname	0.0000
587	C186    17.8080    -1.3250     5.4550	C.3	1	noname	0.0000
588	N47    16.9160    -0.5820     4.5630	N.3	1	noname	0.0000
589	O50    15.8680    -2.6580     6.0000	O.2	1	noname	0.0000
590	C187    18.4100    -0.3690     6.4940	C.3	1	noname	0.0000
591	O51    17.3990     0.0860     7.3560	O.3	1	noname	0.0000
592	H305    15.9590    -0.4680     4.8670	H	1	noname	0.0000
593	H306    18.6300    -1.7320     4.8670	H	1	noname	0.0000
594	H307    19.1720    -0.8880     7.0740	H	1	noname	0.0000
595	H308    18.8670     0.4790     5.9840	H	1	noname	0.0000
596	H309    17.7150     0.7930     7.9240	H	1	noname	0.0000
597	C188    17.0380    -5.8120     6.4090	C.2	1	noname	0.0000
598	C189    17.3200    -4.6400     7.3610	C.3	1	noname	0.0000
599	N48    17.8480    -3.4210     6.7250	N.3	1	noname	0.0000
600	O52    16.5690    -6.8600     6.8410	O.2	1	noname	0.0000
601	H310    18.8330    -3.2250     6.8310	H	1	noname	0.0000
602	H311    16.4010    -4.4050     7.8990	H	1	noname	0.0000
603	H312    18.0420    -4.9880     8.1000	H	1	noname	0.0000
604	C190    18.2150    -6.5490     2.9480	C.2	1	noname	0.0000
605	C191    17.2610    -6.7690     4.1320	C.3	1	noname	0.0000
606	N49    17.3460    -5.6820     5.1140	N.3	1	noname	0.0000
607	O53    18.7310    -5.4510     2.7350	O.2	1	noname	0.0000
608	C192    15.8110    -6.9220     3.6410	C.3	1	noname	0.0000
609	C193    15.2660    -5.7400     2.8600	C.2	1	noname	0.0000
610	C194    14.7830    -4.6100     3.5410	C.2	1	noname	0.0000
611	C195    15.2170    -5.7740     1.4560	C.2	1	noname	0.0000
612	C196    14.2410    -3.5280     2.8280	C.2	1	noname	0.0000
613	C197    14.6490    -4.7050     0.7390	C.2	1	noname	0.0000
614	C198    14.1620    -3.5820     1.4250	C.2	1	noname	0.0000
615	H313    17.6930    -4.7900     4.7900	H	1	noname	0.0000
616	H314    17.5520    -7.6980     4.6230	H	1	noname	0.0000
617	H315    15.7440    -7.8140     3.0180	H	1	noname	0.0000
618	H316    15.1640    -7.0950     4.5010	H	1	noname	0.0000
619	H317    14.8310    -4.5700     4.6190	H	1	noname	0.0000
620	H318    15.6010    -6.6350     0.9290	H	1	noname	0.0000
621	H319    13.8790    -2.6630     3.3620	H	1	noname	0.0000
622	H320    14.5640    -4.7500    -0.3370	H	1	noname	0.0000
623	H321    13.7190    -2.7640     0.8760	H	1	noname	0.0000
624	C199    18.3960    -6.8380    -0.2010	C.2	1	noname	0.0000
625	C200    19.2220    -7.4980     0.9020	C.3	1	noname	0.0000
626	N50    18.4350    -7.5910     2.1410	N.3	1	noname	0.0000
627	O54    17.6600    -7.5050    -0.9230	O.2	1	noname	0.0000
628	C201    19.7230    -8.8780     0.4500	C.3	1	noname	0.0000
629	C202    20.7410    -8.7700    -0.6840	C.3	1	noname	0.0000
630	O55    20.3550    -9.5340     1.5230	O.3	1	noname	0.0000
631	H322    18.0610    -8.4950     2.3930	H	1	noname	0.0000
632	H323    20.0960    -6.8750     1.0910	H	1	noname	0.0000
633	H324    18.8790    -9.4890     0.1280	H	1	noname	0.0000
634	H325    21.2610    -9.2180     1.5740	H	1	noname	0.0000
635	H326    20.2350    -8.4630    -1.5980	H	1	noname	0.0000
636	H327    21.1970    -9.7440    -0.8620	H	1	noname	0.0000
637	H328    21.5200    -8.0480    -0.4370	H	1	noname	0.0000
638	C203    17.6730    -5.2320    -2.6990	C.2	1	noname	0.0000
639	C204    17.7200    -4.6970    -1.2570	C.3	1	noname	0.0000
640	N51    18.5120    -5.5160    -0.3320	N.3	1	noname	0.0000
641	O56    16.6180    -5.2240    -3.3310	O.2	1	noname	0.0000
642	C205    18.3070    -3.2850    -1.2330	C.3	1	noname	0.0000
643	C206    17.6150    -2.2930    -2.1430	C.2	1	noname	0.0000
644	C207    18.2350    -1.8800    -3.3360	C.2	1	noname	0.0000
645	C208    16.3730    -1.7490    -1.7780	C.2	1	noname	0.0000
646	C209    17.6360    -0.8930    -4.1400	C.2	1	noname	0.0000
647	C210    15.7690    -0.7700    -2.5850	C.2	1	noname	0.0000
648	C211    16.3980    -0.3420    -3.7670	C.2	1	noname	0.0000
649	H329    19.0530    -5.0270     0.3670	H	1	noname	0.0000
650	H330    16.6920    -4.6480    -0.8980	H	1	noname	0.0000
651	H331    18.2670    -2.9030    -0.2130	H	1	noname	0.0000
652	H332    19.3560    -3.3500    -1.5230	H	1	noname	0.0000
653	H333    19.1950    -2.2950    -3.6050	H	1	noname	0.0000
654	H334    15.8880    -2.0650    -0.8660	H	1	noname	0.0000
655	H335    18.1380    -0.5390    -5.0290	H	1	noname	0.0000
656	H336    14.8310    -0.3310    -2.2770	H	1	noname	0.0000
657	H337    15.9400     0.4270    -4.3710	H	1	noname	0.0000
658	C212    18.1310    -7.5440    -4.8760	C.2	1	noname	0.0000
659	C213    18.9220    -6.2620    -4.5840	C.3	1	noname	0.0000
660	N52    18.7920    -5.7440    -3.2150	N.3	1	noname	0.0000
661	O57    18.0620    -7.9410    -6.0370	O.2	1	noname	0.0000
662	C214    20.4000    -6.5080    -4.8950	C.3	1	noname	0.0000
663	O58    20.9560    -7.3850    -3.9340	O.3	1	noname	0.0000
664	H338    19.6130    -5.7930    -2.6280	H	1	noname	0.0000
665	H339    18.5530    -5.5060    -5.2770	H	1	noname	0.0000
666	H340    20.4990    -6.9390    -5.8920	H	1	noname	0.0000
667	H341    20.9360    -5.5590    -4.8680	H	1	noname	0.0000
668	H342    21.8000    -7.7150    -4.2520	H	1	noname	0.0000
669	C215    15.2410    -9.1500    -4.1750	C.2	1	noname	0.0000
670	C216    16.7400    -9.4130    -4.0330	C.3	1	noname	0.0000
671	N53    17.5440    -8.1940    -3.8660	N.3	1	noname	0.0000
672	O59    14.4980   -10.0640    -4.5190	O.2	1	noname	0.0000
673	C217    17.0170   -10.3740    -2.8670	C.3	1	noname	0.0000
674	C218    18.4180   -10.9560    -2.7800	C.2	1	noname	0.0000
675	C219    19.3470   -10.8330    -3.8370	C.2	1	noname	0.0000
676	C220    18.7720   -11.6850    -1.6280	C.2	1	noname	0.0000
677	C221    20.6170   -11.4250    -3.7380	C.2	1	noname	0.0000
678	C222    20.0420   -12.2840    -1.5260	C.2	1	noname	0.0000
679	C223    20.9650   -12.1530    -2.5850	C.2	1	noname	0.0000
680	O60    22.1920   -12.7280    -2.5050	O.3	1	noname	0.0000
681	H343    17.6730    -7.8470    -2.9260	H	1	noname	0.0000
682	H344    17.0210    -9.9170    -4.9580	H	1	noname	0.0000
683	H345    16.7930    -9.8610    -1.9320	H	1	noname	0.0000
684	H346    16.3280   -11.2150    -2.9460	H	1	noname	0.0000
685	H347    19.1020   -10.2980    -4.7430	H	1	noname	0.0000
686	H348    18.0570   -11.7990    -0.8270	H	1	noname	0.0000
687	H349    21.3290   -11.3430    -4.5460	H	1	noname	0.0000
688	H350    20.3030   -12.8460    -0.6410	H	1	noname	0.0000
689	H351    22.2990   -13.2270    -1.6920	H	1	noname	0.0000
690	C224    13.0150    -6.5090    -4.9120	C.2	1	noname	0.0000
691	C225    13.3700    -7.5870    -3.8980	C.3	1	noname	0.0000
692	N54    14.7920    -7.9160    -3.9420	N.3	1	noname	0.0000
693	O61    13.8040    -5.5950    -5.1930	O.2	1	noname	0.0000
694	C226    12.9660    -7.2010    -2.4720	C.3	1	noname	0.0000
695	C227    13.2300    -8.3070    -1.4680	C.2	1	noname	0.0000
696	C228    12.2730    -9.3140    -1.2510	C.2	1	noname	0.0000
697	C229    14.4590    -8.3540    -0.7890	C.2	1	noname	0.0000
698	C230    12.5420   -10.3610    -0.3470	C.2	1	noname	0.0000
699	C231    14.7350    -9.3920     0.1210	C.2	1	noname	0.0000
700	C232    13.7720   -10.4010     0.3410	C.2	1	noname	0.0000
701	O62    14.0290   -11.4080     1.2170	O.3	1	noname	0.0000
702	H352    15.4530    -7.1850    -3.7180	H	1	noname	0.0000
703	H353    12.7840    -8.4680    -4.1570	H	1	noname	0.0000
704	H354    11.9020    -6.9630    -2.4610	H	1	noname	0.0000
705	H355    13.5060    -6.3020    -2.1760	H	1	noname	0.0000
706	H356    11.3300    -9.2770    -1.7780	H	1	noname	0.0000
707	H357    15.2010    -7.5990    -1.0020	H	1	noname	0.0000
708	H358    11.8100   -11.1360    -0.1720	H	1	noname	0.0000
709	H359    15.6900    -9.4280     0.6250	H	1	noname	0.0000
710	H360    14.9190   -11.3650     1.5740	H	1	noname	0.0000
711	C233    10.8630    -4.3980    -5.1550	C.2	1	noname	0.0000
712	C234    11.1770    -5.5100    -6.1510	C.3	1	noname	0.0000
713	N55    11.8090    -6.6230    -5.4660	N.3	1	noname	0.0000
714	O63    10.9070    -4.5870    -3.9380	O.2	1	noname	0.0000
715	H361    11.1800    -7.3100    -5.0750	H	1	noname	0.0000
716	H362    10.2450    -5.8380    -6.6120	H	1	noname	0.0000
717	H363    11.8400    -5.1240    -6.9250	H	1	noname	0.0000
718	C235     9.0470    -1.3240    -5.6010	C.2	1	noname	0.0000
719	C236    10.1370    -2.0890    -4.8630	C.3	1	noname	0.0000
720	N56    10.5670    -3.2190    -5.6740	N.3	1	noname	0.0000
721	O64     9.0740    -1.2430    -6.8290	O.2	1	noname	0.0000
722	C237    11.3190    -1.1600    -4.5810	C.3	1	noname	0.0000
723	C238    12.4680    -1.7420    -3.7480	C.3	1	noname	0.0000
724	S3    12.1200    -2.1750    -2.0170	S.3	1	noname	0.0000
725	C239    11.5510    -0.5970    -1.3250	C.3	1	noname	0.0000
726	H364    10.5080    -3.1300    -6.6790	H	1	noname	0.0000
727	H365     9.7240    -2.4390    -3.9170	H	1	noname	0.0000
728	H366    10.9260    -0.2860    -4.0600	H	1	noname	0.0000
729	H367    11.7250    -0.8350    -5.5390	H	1	noname	0.0000
730	H368    13.2710    -1.0050    -3.7510	H	1	noname	0.0000
731	H369    12.8500    -2.6320    -4.2500	H	1	noname	0.0000
732	H370    10.6440    -0.2690    -1.8330	H	1	noname	0.0000
733	H371    11.3200    -0.7330    -0.2680	H	1	noname	0.0000
734	H372    12.3280     0.1600    -1.4290	H	1	noname	0.0000
735	C240     6.7760     1.3570    -4.6650	C.2	1	noname	0.0000
736	C241     7.0530     0.0820    -5.4410	C.3	1	noname	0.0000
737	N57     8.1250    -0.7180    -4.8660	N.3	1	noname	0.0000
738	O65     7.2130     1.5190    -3.5270	O.2	1	noname	0.0000
739	H373     8.1420    -0.8370    -3.8630	H	1	noname	0.0000
740	H374     6.1370    -0.5070    -5.4830	H	1	noname	0.0000
741	H375     7.3180     0.3770    -6.4570	H	1	noname	0.0000
742	C242     3.9230     3.2910    -4.7220	C.2	1	noname	0.0000
743	C243     5.4390     3.4300    -4.6990	C.3	1	noname	0.0000
744	N58     6.0400     2.2540    -5.3110	N.3	1	noname	0.0000
745	O66     3.3350     2.9560    -5.7530	O.2	1	noname	0.0000
746	C244     5.8930     4.7100    -5.4060	C.3	1	noname	0.0000
747	C245     7.3170     5.0820    -5.1450	C.2	1	noname	0.0000
748	C246     8.3710     4.7870    -5.9350	C.2	1	noname	0.0000
749	C247     7.8610     5.8030    -4.0000	C.2	1	noname	0.0000
750	C248     9.2740     5.9160    -4.1650	C.2	1	noname	0.0000
751	C249     7.3000     6.3730    -2.8390	C.2	1	noname	0.0000
752	C250    10.0920     6.5690    -3.2290	C.2	1	noname	0.0000
753	C251     8.1070     7.0370    -1.8980	C.2	1	noname	0.0000
754	C252     9.4980     7.1350    -2.0860	C.2	1	noname	0.0000
755	N59     9.5300     5.2670    -5.3560	N.3	1	noname	0.0000
756	H376     5.7140     1.9980    -6.2320	H	1	noname	0.0000
757	H377     5.7580     3.4980    -3.6590	H	1	noname	0.0000
758	H378     5.2700     5.5350    -5.0610	H	1	noname	0.0000
759	H379     5.7350     4.6080    -6.4800	H	1	noname	0.0000
760	H380     8.3000     4.2470    -6.8670	H	1	noname	0.0000
761	H381    10.4420     5.1510    -5.7740	H	1	noname	0.0000
762	H382     6.2380     6.2830    -2.6680	H	1	noname	0.0000
763	H383    11.1600     6.6300    -3.3800	H	1	noname	0.0000
764	H384     7.6500     7.4650    -1.0180	H	1	noname	0.0000
765	H385    10.1020     7.6360    -1.3450	H	1	noname	0.0000
766	C253     1.5310     5.0060    -2.7920	C.2	1	noname	0.0000
767	C254     1.8500     3.6530    -3.4080	C.3	1	noname	0.0000
768	N60     3.3010     3.5950    -3.5920	N.3	1	noname	0.0000
769	O67     2.2770     5.4830    -1.9400	O.2	1	noname	0.0000
770	C255     1.3740     2.5040    -2.5040	C.3	1	noname	0.0000
771	C256    -0.1400     2.5300    -2.2530	C.3	1	noname	0.0000
772	C257     1.7220     1.1370    -3.1100	C.3	1	noname	0.0000
773	H386     3.8670     3.8430    -2.7930	H	1	noname	0.0000
774	H387     1.3420     3.5780    -4.3700	H	1	noname	0.0000
775	H388     1.8890     2.5970    -1.5480	H	1	noname	0.0000
776	H389    -0.4380     3.4600    -1.7670	H	1	noname	0.0000
777	H390    -0.6800     2.4210    -3.1940	H	1	noname	0.0000
778	H391    -0.4210     1.7060    -1.5980	H	1	noname	0.0000
779	H392     2.8030     1.0100    -3.1580	H	1	noname	0.0000
780	H393     1.3170     0.3410    -2.4850	H	1	noname	0.0000
781	H394     1.3020     1.0500    -4.1130	H	1	noname	0.0000
782	C258    -1.3580     6.8600    -2.0280	C.2	1	noname	0.0000
783	C259     0.0180     6.9350    -2.6680	C.3	1	noname	0.0000
784	N61     0.4430     5.6450    -3.2120	N.3	1	noname	0.0000
785	O68    -2.1820     6.0340    -2.4060	O.2	1	noname	0.0000
786	C260     0.1460     8.0380    -3.7250	C.3	1	noname	0.0000
787	C261    -0.9180     7.9620    -4.8300	C.3	1	noname	0.0000
788	C262    -0.6840     9.0800    -5.8440	C.3	1	noname	0.0000
789	C263    -1.6700     9.7510    -8.0320	C.2	1	noname	0.0000
790	N62    -1.6580     9.0200    -6.9390	N.3	1	noname	0.0000
791	N63    -0.7620    10.6690    -8.2510	N.3	1	noname	0.0000
792	N64    -2.6020     9.5380    -8.9100	N.2	1	noname	0.0000
793	H395    -0.1590     5.1840    -3.8790	H	1	noname	0.0000
794	H396     0.7020     7.2000    -1.8620	H	1	noname	0.0000
795	H397     0.0740     9.0050    -3.2280	H	1	noname	0.0000
796	H398     1.1390     7.9740    -4.1720	H	1	noname	0.0000
797	H399    -1.9120     8.0810    -4.3990	H	1	noname	0.0000
798	H400    -0.8630     6.9960    -5.3320	H	1	noname	0.0000
799	H401     0.3230     8.9830    -6.2510	H	1	noname	0.0000
800	H402    -0.7690    10.0420    -5.3390	H	1	noname	0.0000
801	H403    -2.4580     8.4110    -6.8410	H	1	noname	0.0000
802	H404    -0.8030    11.3070    -9.0330	H	1	noname	0.0000
803	H405    -0.0620    10.8250    -7.5390	H	1	noname	0.0000
804	H406    -3.2380     8.7750    -8.7290	H	1	noname	0.0000
805	H407    -2.6560    10.0820    -9.7590	H	1	noname	0.0000
806	C264    -3.2400     9.4110    -0.3740	C.2	1	noname	0.0000
807	C265    -2.8990     7.9230    -0.4290	C.3	1	noname	0.0000
808	N65    -1.6050     7.7490    -1.0770	N.3	1	noname	0.0000
809	O69    -2.6350    10.1790     0.3800	O.2	1	noname	0.0000
810	C266    -2.8520     7.2800     0.9620	C.3	1	noname	0.0000
811	C267    -4.2480     7.1450     1.5860	C.3	1	noname	0.0000
812	C268    -4.2120     6.3150     2.8660	C.2	1	noname	0.0000
813	O70    -3.2790     6.3520     3.6530	O.2	1	noname	0.0000
814	N66    -5.2100     5.5000     3.1210	N.3	1	noname	0.0000
815	H408    -0.8360     8.3260    -0.7670	H	1	noname	0.0000
816	H409    -3.6670     7.4120    -1.0100	H	1	noname	0.0000
817	H410    -2.2120     7.8670     1.6210	H	1	noname	0.0000
818	H411    -2.4200     6.2840     0.8690	H	1	noname	0.0000
819	H412    -4.9090     6.6570     0.8710	H	1	noname	0.0000
820	H413    -4.6540     8.1300     1.8150	H	1	noname	0.0000
821	H414    -5.0820     4.8620     3.8920	H	1	noname	0.0000
822	H415    -6.0120     5.4650     2.5080	H	1	noname	0.0000
823	C269    -5.6930    11.3330     0.0410	C.2	1	noname	0.0000
824	C270    -4.7260    11.1850    -1.1540	C.3	1	noname	0.0000
825	N67    -4.1910     9.8300    -1.2070	N.3	1	noname	0.0000
826	O71    -6.3480    10.3570     0.4230	O.2	1	noname	0.0000
827	C271    -5.3700    11.5330    -2.4990	C.3	1	noname	0.0000
828	H416    -4.6500     9.1540    -1.8000	H	1	noname	0.0000
829	H417    -3.8880    11.8690    -1.0160	H	1	noname	0.0000
830	H418    -4.6130    11.5110    -3.2830	H	1	noname	0.0000
831	H419    -5.7950    12.5360    -2.4580	H	1	noname	0.0000
832	H420    -6.1520    10.8140    -2.7420	H	1	noname	0.0000
833	C272    -8.1890    12.3180     1.3940	C.2	1	noname	0.0000
834	C273    -6.7590    12.7580     1.7390	C.3	1	noname	0.0000
835	N68    -5.8280    12.5330     0.6360	N.3	1	noname	0.0000
836	O72    -8.7460    12.7100     0.3690	O.2	1	noname	0.0000
837	C274    -6.6770    14.2570     2.0470	C.3	1	noname	0.0000
838	C275    -5.2690    14.6320     1.5870	C.3	1	noname	0.0000
839	C276    -5.0550    13.7390     0.3670	C.3	1	noname	0.0000
840	H421    -6.4030    12.1980     2.6040	H	1	noname	0.0000
841	H422    -6.8220    14.4600     3.1080	H	1	noname	0.0000
842	H423    -7.4050    14.8070     1.4510	H	1	noname	0.0000
843	H424    -5.1920    15.6890     1.3310	H	1	noname	0.0000
844	H425    -4.5480    14.3710     2.3610	H	1	noname	0.0000
845	H426    -5.4400    14.2290    -0.5270	H	1	noname	0.0000
846	H427    -3.9910    13.5280     0.2550	H	1	noname	0.0000
847	C277   -10.2610     9.9260     0.8970	C.2	1	noname	0.0000
848	C278   -10.1370    10.9460     2.0380	C.3	1	noname	0.0000
849	N69    -8.7860    11.4820     2.2480	N.3	1	noname	0.0000
850	O73   -11.3790     9.6120     0.4870	O.2	1	noname	0.0000
851	H428    -8.2630    11.1610     3.0490	H	1	noname	0.0000
852	H429   -10.4640    10.4550     2.9550	H	1	noname	0.0000
853	H430   -10.8190    11.7700     1.8270	H	1	noname	0.0000
854	C279    -8.4260     7.1000    -0.1340	C.2	1	noname	0.0000
855	C280    -9.0960     8.3720    -0.6660	C.3	1	noname	0.0000
856	N70    -9.1430     9.4170     0.3650	N.3	1	noname	0.0000
857	O74    -7.7450     7.1170     0.8920	O.2	1	noname	0.0000
858	C281    -8.3750     8.9010    -1.9210	C.3	1	noname	0.0000
859	C282    -8.9850    10.1670    -2.5470	C.3	1	noname	0.0000
860	C283   -10.4040     9.9430    -3.0810	C.3	1	noname	0.0000
861	C284   -10.8770    11.2020    -3.8140	C.3	1	noname	0.0000
862	N71   -12.2100    10.9950    -4.4280	N.3	1	noname	0.0000
863	H431    -8.2540     9.7250     0.7310	H	1	noname	0.0000
864	H432   -10.1140     8.0880    -0.9350	H	1	noname	0.0000
865	H433    -8.3560     8.1170    -2.6780	H	1	noname	0.0000
866	H434    -7.3380     9.1110    -1.6580	H	1	noname	0.0000
867	H435    -8.3520    10.4670    -3.3820	H	1	noname	0.0000
868	H436    -8.9890    10.9790    -1.8200	H	1	noname	0.0000
869	H437   -11.0770     9.7270    -2.2510	H	1	noname	0.0000
870	H438   -10.3930     9.0980    -3.7690	H	1	noname	0.0000
871	H439   -10.1430    11.4520    -4.5800	H	1	noname	0.0000
872	H440   -10.9060    12.0240    -3.0990	H	1	noname	0.0000
873	H441   -12.8840    10.7590    -3.7130	H	1	noname	0.0000
874	H442   -12.1700    10.2410    -5.0980	H	1	noname	0.0000
875	H443   -12.5120    11.8340    -4.9020	H	1	noname	0.0000
876	C285    -6.4880     4.7530    -1.0970	C.2	1	noname	0.0000
877	C286    -7.9380     4.7310    -0.6010	C.3	1	noname	0.0000
878	N72    -8.6380     5.9930    -0.8450	N.3	1	noname	0.0000
879	O75    -6.0020     5.7660    -1.6020	O.2	1	noname	0.0000
880	H444    -9.1900     6.0630    -1.6880	H	1	noname	0.0000
881	H445    -8.4630     3.9230    -1.1100	H	1	noname	0.0000
882	H446    -7.9350     4.5160     0.4680	H	1	noname	0.0000
883	C287    -4.5230     3.2850    -3.0230	C.2	1	noname	0.0000
884	C288    -4.4670     3.3970    -1.4910	C.3	1	noname	0.0000
885	N73    -5.8080     3.6160    -0.9470	N.3	1	noname	0.0000
886	O76    -5.3640     2.5740    -3.5650	O.2	1	noname	0.0000
887	C289    -3.8710     2.1190    -0.8670	C.3	1	noname	0.0000
888	C290    -3.6260     2.1920     0.6530	C.3	1	noname	0.0000
889	C291    -3.3350     0.7960     1.2040	C.3	1	noname	0.0000
890	C292    -2.4450     3.1010     1.0000	C.3	1	noname	0.0000
891	H447    -6.2890     2.8120    -0.5710	H	1	noname	0.0000
892	H448    -3.8350     4.2510    -1.2440	H	1	noname	0.0000
893	H449    -4.5560     1.2960    -1.0730	H	1	noname	0.0000
894	H450    -2.9290     1.8870    -1.3630	H	1	noname	0.0000
895	H451    -4.5200     2.5690     1.1490	H	1	noname	0.0000
896	H452    -3.2480     0.8450     2.2900	H	1	noname	0.0000
897	H453    -2.4140     0.4030     0.7740	H	1	noname	0.0000
898	H454    -4.1600     0.1280     0.9560	H	1	noname	0.0000
899	H455    -2.3470     3.1760     2.0830	H	1	noname	0.0000
900	H456    -1.5220     2.7000     0.5810	H	1	noname	0.0000
901	H457    -2.6170     4.0990     0.5980	H	1	noname	0.0000
902	C293    -1.9980     3.4860    -5.4920	C.2	1	noname	0.0000
903	C294    -3.4400     3.8890    -5.1720	C.3	1	noname	0.0000
904	N74    -3.6050     3.9530    -3.7170	N.3	1	noname	0.0000
905	O77    -1.0460     4.1530    -5.0790	O.2	1	noname	0.0000
906	C295    -3.8030     5.2460    -5.8050	C.3	1	noname	0.0000
907	C296    -3.7890     5.2380    -7.3510	C.3	1	noname	0.0000
908	C297    -3.9070     6.6450    -7.9750	C.2	1	noname	0.0000
909	O78    -3.7500     6.8180    -9.2100	O.2	1	noname	0.0000
910	O79    -4.0420     7.6400    -7.2270	O.3	1	noname	0.0000
911	H458    -2.9930     4.5810    -3.2160	H	1	noname	0.0000
912	H459    -4.1120     3.1370    -5.5870	H	1	noname	0.0000
913	H460    -4.7990     5.5360    -5.4700	H	1	noname	0.0000
914	H461    -3.0950     5.9910    -5.4420	H	1	noname	0.0000
915	H462    -4.6080     4.6110    -7.7050	H	1	noname	0.0000
916	H463    -2.8530     4.7960    -7.6920	H	1	noname	0.0000
917	C298    -0.0030     2.9910    -7.7690	C.2	1	noname	0.0000
918	C299    -0.4960     1.9950    -6.7100	C.3	1	noname	0.0000
919	N75    -1.8160     2.3900    -6.2280	N.3	1	noname	0.0000
920	O80    -0.7570     3.3780    -8.6550	O.2	1	noname	0.0000
921	C300    -0.5620     0.5620    -7.2360	C.3	1	noname	0.0000
922	C301     0.7400     0.0300    -7.7370	C.2	1	noname	0.0000
923	C302     1.6550    -0.6640    -7.0250	C.2	1	noname	0.0000
924	C303     1.2620     0.1090    -9.0910	C.2	1	noname	0.0000
925	C304     2.5120    -0.5740    -9.1350	C.2	1	noname	0.0000
926	C305     0.7620     0.6380   -10.2960	C.2	1	noname	0.0000
927	C306     3.2330    -0.7280   -10.3250	C.2	1	noname	0.0000
928	C307     1.4680     0.4730   -11.4960	C.2	1	noname	0.0000
929	C308     2.7020    -0.1910   -11.5080	C.2	1	noname	0.0000
930	N76     2.7070    -1.0220    -7.8460	N.3	1	noname	0.0000
931	H464    -2.6190     1.9100    -6.6080	H	1	noname	0.0000
932	H465     0.2050     2.0170    -5.8760	H	1	noname	0.0000
933	H466    -0.9230    -0.0940    -6.4440	H	1	noname	0.0000
934	H467    -1.2840     0.5210    -8.0510	H	1	noname	0.0000
935	H468     1.5540    -0.9340    -5.9840	H	1	noname	0.0000
936	H469     3.4520    -1.6370    -7.5510	H	1	noname	0.0000
937	H470    -0.2100     1.1090   -10.2990	H	1	noname	0.0000
938	H471     4.1420    -1.3110   -10.3380	H	1	noname	0.0000
939	H472     1.0130     0.7860   -12.4240	H	1	noname	0.0000
940	H473     3.1940    -0.3520   -12.4560	H	1	noname	0.0000
941	C309     2.8160     3.8970    -9.5420	C.2	1	noname	0.0000
942	C310     1.8290     4.4790    -8.5390	C.3	1	noname	0.0000
943	N77     1.2570     3.4300    -7.6730	N.3	1	noname	0.0000
944	O81     2.7740     4.2190   -10.7300	O.2	1	noname	0.0000
945	C311     2.5130     5.5710    -7.6870	C.3	1	noname	0.0000
946	C312     3.2070     6.6510    -8.5250	C.3	1	noname	0.0000
947	C313     1.5050     6.2750    -6.7760	C.3	1	noname	0.0000
948	H474     1.8210     3.0800    -6.9120	H	1	noname	0.0000
949	H475     1.0330     4.9530    -9.1140	H	1	noname	0.0000
950	H476     3.2790     5.1140    -7.0610	H	1	noname	0.0000
951	H477     4.0040     6.2190    -9.1310	H	1	noname	0.0000
952	H478     2.4720     7.1280    -9.1740	H	1	noname	0.0000
953	H479     3.6470     7.4010    -7.8670	H	1	noname	0.0000
954	H480     1.0530     5.5530    -6.0960	H	1	noname	0.0000
955	H481     0.7170     6.7320    -7.3750	H	1	noname	0.0000
956	H482     2.0090     7.0350    -6.1790	H	1	noname	0.0000
957	C314     5.5360     1.3710    -9.1730	C.2	1	noname	0.0000
958	C315     4.8190     2.5100    -9.8870	C.3	1	noname	0.0000
959	N78     3.7590     3.0880    -9.0580	N.3	1	noname	0.0000
960	O82     5.5590     1.3280    -7.9440	O.2	1	noname	0.0000
961	C316     5.8460     3.5810   -10.2900	C.3	1	noname	0.0000
962	O83     6.4280     4.1870    -9.1500	O.3	1	noname	0.0000
963	H483     3.6710     2.7640    -8.1050	H	1	noname	0.0000
964	H484     4.3590     2.1050   -10.7880	H	1	noname	0.0000
965	H485     5.3510     4.3480   -10.8860	H	1	noname	0.0000
966	H486     6.6270     3.1280   -10.8990	H	1	noname	0.0000
967	H487     5.7920     4.1050    -8.4360	H	1	noname	0.0000
968	C317     8.2210    -0.8460   -10.2630	C.2	1	noname	0.0000
969	C318     6.9590    -0.6300    -9.4390	C.3	1	noname	0.0000
970	N79     6.1700     0.4910    -9.9420	N.3	1	noname	0.0000
971	O84     8.2670    -0.5210   -11.4500	O.2	1	noname	0.0000
972	H488     6.1150     0.6160   -10.9430	H	1	noname	0.0000
973	H489     7.2500    -0.4440    -8.4050	H	1	noname	0.0000
974	H490     6.3670    -1.5450    -9.4590	H	1	noname	0.0000
975	C319    11.0060    -3.0930    -9.7760	C.2	1	noname	0.0000
976	C320    10.5290    -1.7240   -10.2570	C.3	1	noname	0.0000
977	N80     9.2580    -1.3800    -9.6270	N.3	1	noname	0.0000
978	O85    11.0300    -3.3910    -8.5820	O.2	1	noname	0.0000
979	C321    11.5740    -0.6030   -10.0590	C.3	1	noname	0.0000
980	C322    12.8350    -0.8730   -10.9000	C.3	1	noname	0.0000
981	C323    11.9560    -0.3860    -8.5840	C.3	1	noname	0.0000
982	C324    13.7220     0.3670   -11.0790	C.3	1	noname	0.0000
983	H491     9.1580    -1.5770    -8.6420	H	1	noname	0.0000
984	H492    10.3490    -1.8030   -11.3300	H	1	noname	0.0000
985	H493    11.1250     0.3180   -10.4300	H	1	noname	0.0000
986	H494    13.4140    -1.6650   -10.4240	H	1	noname	0.0000
987	H495    12.5420    -1.2170   -11.8920	H	1	noname	0.0000
988	H496    12.6250     0.4700    -8.4910	H	1	noname	0.0000
989	H497    11.0620    -0.1740    -7.9980	H	1	noname	0.0000
990	H498    12.4440    -1.2690    -8.1720	H	1	noname	0.0000
991	H499    14.1230     0.6960   -10.1200	H	1	noname	0.0000
992	H500    13.1420     1.1800   -11.5160	H	1	noname	0.0000
993	H501    14.5500     0.1340   -11.7480	H	1	noname	0.0000
994	C325    13.2890    -5.1790    -9.6350	C.2	1	noname	0.0000
995	C326    11.9910    -5.2500   -10.4560	C.3	1	noname	0.0000
996	N81    11.4190    -3.9270   -10.7260	N.3	1	noname	0.0000
997	O86    13.9580    -4.1420    -9.5690	O.2	1	noname	0.0000
998	C327    12.2350    -5.9850   -11.7780	C.3	1	noname	0.0000
999	O87    13.1530    -5.2510   -12.5680	O.3	1	noname	0.0000
1000	H502    11.3150    -3.6180   -11.6820	H	1	noname	0.0000
1001	H503    11.2640    -5.8240    -9.8810	H	1	noname	0.0000
1002	H504    11.2930    -6.0890   -12.3170	H	1	noname	0.0000
1003	H505    12.6360    -6.9790   -11.5810	H	1	noname	0.0000
1004	H506    12.7330    -4.4160   -12.7870	H	1	noname	0.0000
1005	C328    16.1980    -6.0620    -9.0000	C.2	1	noname	0.0000
1006	C329    14.9120    -6.4280    -8.2280	C.3	1	noname	0.0000
1007	N82    13.6870    -6.3040    -9.0350	N.3	1	noname	0.0000
1008	O88    17.1230    -5.4600    -8.4490	O.2	1	noname	0.0000
1009	C330    14.9660    -7.8410    -7.6380	C.3	1	noname	0.0000
1010	C331    15.2190    -8.9300    -8.6580	C.2	1	noname	0.0000
1011	C332    14.1350    -9.6050    -9.2490	C.2	1	noname	0.0000
1012	C333    16.5400    -9.2500    -9.0260	C.2	1	noname	0.0000
1013	C334    14.3730   -10.5890   -10.2260	C.2	1	noname	0.0000
1014	C335    16.7810   -10.2330   -10.0030	C.2	1	noname	0.0000
1015	C336    15.6940   -10.9050   -10.6020	C.2	1	noname	0.0000
1016	O89    15.9140   -11.8610   -11.5400	O.3	1	noname	0.0000
1017	H507    13.0930    -7.1190    -9.0960	H	1	noname	0.0000
1018	H508    14.8500    -5.7520    -7.3760	H	1	noname	0.0000
1019	H509    14.0300    -8.0500    -7.1200	H	1	noname	0.0000
1020	H510    15.7520    -7.8740    -6.8830	H	1	noname	0.0000
1021	H511    13.1230    -9.3970    -8.9370	H	1	noname	0.0000
1022	H512    17.3670    -8.7530    -8.5400	H	1	noname	0.0000
1023	H513    13.5530   -11.1300   -10.6750	H	1	noname	0.0000
1024	H514    17.7950   -10.4910   -10.2720	H	1	noname	0.0000
1025	H515    16.8460   -12.0630   -11.6520	H	1	noname	0.0000
1026	C337    17.2930    -4.5980   -11.7410	C.2	1	noname	0.0000
1027	C338    17.3390    -6.0310   -11.2070	C.3	1	noname	0.0000
1028	N83    16.2270    -6.3580   -10.3050	N.3	1	noname	0.0000
1029	O90    18.2760    -4.1280   -12.3030	O.2	1	noname	0.0000
1030	C339    17.3660    -7.0230   -12.3750	C.3	1	noname	0.0000
1031	O91    16.1580    -6.9700   -13.1170	O.3	1	noname	0.0000
1032	H516    15.4400    -6.8560   -10.6950	H	1	noname	0.0000
1033	H517    18.2750    -6.1360   -10.6600	H	1	noname	0.0000
1034	H518    18.2060    -6.7930   -13.0300	H	1	noname	0.0000
1035	H519    17.4990    -8.0300   -11.9790	H	1	noname	0.0000
1036	H520    15.8990    -7.8730   -13.3150	H	1	noname	0.0000
1037	C340    15.5790    -2.5610   -13.6510	C.2	1	noname	0.0000
1038	C341    15.9470    -2.5720   -12.1640	C.3	1	noname	0.0000
1039	N84    16.1640    -3.8990   -11.5890	N.3	1	noname	0.0000
1040	O92    15.3610    -1.4870   -14.1960	O.2	1	noname	0.0000
1041	H521    15.4040    -4.3200   -11.0740	H	1	noname	0.0000
1042	H522    16.8500    -1.9740   -12.0400	H	1	noname	0.0000
1043	H523    15.1370    -2.0890   -11.6190	H	1	noname	0.0000
1044	C342    13.7670    -3.6140   -16.1230	C.2	1	noname	0.0000
1045	C343    15.2350    -3.8370   -15.7480	C.3	1	noname	0.0000
1046	N85    15.4940    -3.7270   -14.3020	N.3	1	noname	0.0000
1047	O93    13.4770    -2.9130   -17.0870	O.2	1	noname	0.0000
1048	C344    15.7060    -5.1980   -16.2670	C.3	1	noname	0.0000
1049	O94    15.0770    -6.2590   -15.5690	O.3	1	noname	0.0000
1050	H524    15.6490    -4.5740   -13.7750	H	1	noname	0.0000
1051	H525    15.8100    -3.0690   -16.2640	H	1	noname	0.0000
1052	H526    15.4680    -5.2750   -17.3280	H	1	noname	0.0000
1053	H527    16.7860    -5.2770   -16.1470	H	1	noname	0.0000
1054	H528    15.5130    -6.3820   -14.7220	H	1	noname	0.0000
1055	C345    10.9230    -2.8130   -14.6370	C.2	1	noname	0.0000
1056	C346    11.4040    -3.9650   -15.5100	C.3	1	noname	0.0000
1057	N86    12.8400    -4.1910   -15.3560	N.3	1	noname	0.0000
1058	O95    11.1330    -2.8550   -13.4180	O.2	1	noname	0.0000
1059	H529    13.1600    -4.8460   -14.6580	H	1	noname	0.0000
1060	H530    10.8570    -4.8640   -15.2240	H	1	noname	0.0000
1061	H531    11.1690    -3.7530   -16.5530	H	1	noname	0.0000
1062	C347     8.0820    -0.7240   -15.0400	C.2	1	noname	0.0000
1063	C348     9.5360    -0.7460   -14.5820	C.3	1	noname	0.0000
1064	N87    10.2660    -1.8280   -15.2520	N.3	1	noname	0.0000
1065	O96     7.7690    -1.0050   -16.1960	O.2	1	noname	0.0000
1066	C349    10.1640     0.6400   -14.7970	C.3	1	noname	0.0000
1067	C350    11.5820     0.7270   -14.2410	C.3	1	noname	0.0000
1068	O97    10.2350     0.9860   -16.1580	O.3	1	noname	0.0000
1069	H532    10.1610    -1.8670   -16.2560	H	1	noname	0.0000
1070	H533     9.5360    -0.9400   -13.5090	H	1	noname	0.0000
1071	H534     9.5490     1.3800   -14.2830	H	1	noname	0.0000
1072	H535    10.5640     1.8870   -16.2050	H	1	noname	0.0000
1073	H536    12.2430     0.0480   -14.7780	H	1	noname	0.0000
1074	H537    11.5630     0.4570   -13.1850	H	1	noname	0.0000
1075	H538    11.9540     1.7470   -14.3370	H	1	noname	0.0000
1076	C351     5.1690     0.9130   -13.7230	C.2	1	noname	0.0000
1077	C352     5.7480    -0.3630   -14.3320	C.3	1	noname	0.0000
1078	N88     7.1900    -0.3830   -14.1170	N.3	1	noname	0.0000
1079	O98     5.6740     1.3980   -12.7080	O.2	1	noname	0.0000
1080	C353     5.1190    -1.6240   -13.7240	C.3	1	noname	0.0000
1081	C354     5.7760    -2.9230   -14.1400	C.2	1	noname	0.0000
1082	C355     5.3960    -3.5520   -15.3400	C.2	1	noname	0.0000
1083	C356     6.7600    -3.5040   -13.3170	C.2	1	noname	0.0000
1084	C357     6.0040    -4.7630   -15.7200	C.2	1	noname	0.0000
1085	C358     7.3620    -4.7200   -13.6880	C.2	1	noname	0.0000
1086	C359     6.9820    -5.3510   -14.8930	C.2	1	noname	0.0000
1087	O99     7.5530    -6.5280   -15.2540	O.3	1	noname	0.0000
1088	H539     7.5150    -0.1910   -13.1810	H	1	noname	0.0000
1089	H540     5.5400    -0.3590   -15.4020	H	1	noname	0.0000
1090	H541     4.0690    -1.6670   -14.0120	H	1	noname	0.0000
1091	H542     5.1690    -1.5520   -12.6380	H	1	noname	0.0000
1092	H543     4.6330    -3.1150   -15.9670	H	1	noname	0.0000
1093	H544     7.0360    -3.0260   -12.3880	H	1	noname	0.0000
1094	H545     5.7110    -5.2640   -16.6310	H	1	noname	0.0000
1095	H546     8.0940    -5.1790   -13.0410	H	1	noname	0.0000
1096	H547     8.0440    -6.9240   -14.5300	H	1	noname	0.0000
1097	C360     1.9930     2.6460   -14.0300	C.2	1	noname	0.0000
1098	C361     3.5060     2.7250   -13.9410	C.3	1	noname	0.0000
1099	N89     4.1110     1.4500   -14.3290	N.3	1	noname	0.0000
1100	O100     1.4690     2.0570   -14.9760	O.2	1	noname	0.0000
1101	C362     3.9880     3.8490   -14.8680	C.3	1	noname	0.0000
1102	C363     5.4890     4.0090   -14.9080	C.2	1	noname	0.0000
1103	C364     6.1350     4.8160   -13.9540	C.2	1	noname	0.0000
1104	C365     6.2410     3.3190   -15.8760	C.2	1	noname	0.0000
1105	C366     7.5360     4.9370   -13.9720	C.2	1	noname	0.0000
1106	C367     7.6410     3.4320   -15.8920	C.2	1	noname	0.0000
1107	C368     8.2960     4.2440   -14.9460	C.2	1	noname	0.0000
1108	O101     9.6550     4.3230   -14.9950	O.3	1	noname	0.0000
1109	H548     3.6760     0.9570   -15.0970	H	1	noname	0.0000
1110	H549     3.7790     2.9730   -12.9150	H	1	noname	0.0000
1111	H550     3.6280     3.6560   -15.8790	H	1	noname	0.0000
1112	H551     3.5410     4.7880   -14.5410	H	1	noname	0.0000
1113	H552     5.5520     5.3410   -13.2120	H	1	noname	0.0000
1114	H553     5.7480     2.6780   -16.5910	H	1	noname	0.0000
1115	H554     8.0050     5.5850   -13.2460	H	1	noname	0.0000
1116	H555     8.2230     2.8860   -16.6200	H	1	noname	0.0000
1117	H556    10.0530     4.8610   -14.3060	H	1	noname	0.0000
1118	C369    -0.4170     4.4630   -14.3550	C.2	1	noname	0.0000
1119	C370    -0.1230     3.5050   -13.1960	C.3	1	noname	0.0000
1120	N90     1.3080     3.2890   -13.0880	N.3	1	noname	0.0000
1121	O102     0.3430     5.4070   -14.6110	O.2	1	noname	0.0000
1122	C371    -0.6540     4.0320   -11.8640	C.3	1	noname	0.0000
1123	H557     1.7950     3.7120   -12.3100	H	1	noname	0.0000
1124	H558    -0.6090     2.5520   -13.4050	H	1	noname	0.0000
1125	H559    -1.7360     4.1550   -11.9140	H	1	noname	0.0000
1126	H560    -0.1970     4.9890   -11.6120	H	1	noname	0.0000
1127	H561    -0.4220     3.3070   -11.0840	H	1	noname	0.0000
1128	C372    -2.0640     6.5810   -15.7840	C.2	1	noname	0.0000
1129	C373    -1.9430     5.0980   -16.1690	C.3	1	noname	0.0000
1130	N91    -1.5450     4.2610   -15.0320	N.3	1	noname	0.0000
1131	O103    -1.7300     7.4580   -16.5810	O.2	1	noname	0.0000
1132	C374    -3.2660     4.5810   -16.7510	C.3	1	noname	0.0000
1133	C375    -3.1140     3.2950   -17.5740	C.2	1	noname	0.0000
1134	O104    -1.9980     3.0500   -18.1020	O.2	1	noname	0.0000
1135	O105    -4.1440     2.6070   -17.7260	O.3	1	noname	0.0000
1136	H562    -2.1020     3.4440   -14.8250	H	1	noname	0.0000
1137	H563    -1.1770     5.0350   -16.9420	H	1	noname	0.0000
1138	H564    -3.6730     5.3450   -17.4130	H	1	noname	0.0000
1139	H565    -3.9810     4.4250   -15.9430	H	1	noname	0.0000
1140	C376    -1.2320     9.0140   -13.9980	C.2	1	noname	0.0000
1141	C377    -2.5590     8.2360   -13.9980	C.3	1	noname	0.0000
1142	N92    -2.4420     6.8740   -14.5330	N.3	1	noname	0.0000
1143	O106    -1.2380    10.2470   -14.0920	O.2	1	noname	0.0000
1144	C378    -3.1680     8.1830   -12.5830	C.3	1	noname	0.0000
1145	O107    -2.3450     7.4680   -11.6780	O.3	1	noname	0.0000
1146	H566    -2.6360     6.1060   -13.9060	H	1	noname	0.0000
1147	H567    -3.2490     8.7870   -14.6370	H	1	noname	0.0000
1148	H568    -3.3090     9.1990   -12.2130	H	1	noname	0.0000
1149	H569    -4.1420     7.6970   -12.6340	H	1	noname	0.0000
1150	H570    -2.8510     7.2120   -10.9040	H	1	noname	0.0000
1151	C379     2.1670     8.6030   -15.0430	C.2	1	noname	0.0000
1152	C380     1.2620     8.9330   -13.8540	C.3	1	noname	0.0000
1153	N93    -0.0850     8.3270   -13.9350	N.3	1	noname	0.0000
1154	O108     3.2800     9.1330   -15.1470	O.2	1	noname	0.0000
1155	C381     1.9570     8.5780   -12.5280	C.3	1	noname	0.0000
1156	C382     1.1200     9.0120   -11.3190	C.3	1	noname	0.0000
1157	C383     2.2890     7.0860   -12.4120	C.3	1	noname	0.0000
1158	H571    -0.1580     7.3220   -13.8610	H	1	noname	0.0000
1159	H572     1.1620    10.0180   -13.8640	H	1	noname	0.0000
1160	H573     2.8940     9.1330   -12.4930	H	1	noname	0.0000
1161	H574     0.8730    10.0710   -11.3930	H	1	noname	0.0000
1162	H575     1.6910     8.8620   -10.4030	H	1	noname	0.0000
1163	H576     0.2030     8.4260   -11.2530	H	1	noname	0.0000
1164	H577     2.9020     6.7590   -13.2510	H	1	noname	0.0000
1165	H578     2.8460     6.9050   -11.4930	H	1	noname	0.0000
1166	H579     1.3720     6.4970   -12.3850	H	1	noname	0.0000
1167	C384     2.9470     8.4680   -17.9670	C.2	1	noname	0.0000
1168	C385     2.4600     7.2870   -17.1230	C.3	1	noname	0.0000
1169	N94     1.7030     7.7440   -15.9570	N.3	1	noname	0.0000
1170	O109     2.1950     9.3860   -18.2880	O.2	1	noname	0.0000
1171	C386     1.5760     6.3190   -17.9160	C.3	1	noname	0.0000
1172	C387     2.3470     5.5220   -18.9770	C.3	1	noname	0.0000
1173	C388     1.4020     4.4620   -19.5520	C.3	1	noname	0.0000
1174	C389     2.0960     3.4940   -20.5110	C.3	1	noname	0.0000
1175	N95     1.1560     2.3950   -20.8470	N.3	1	noname	0.0000
1176	H580     0.7940     7.3370   -15.7930	H	1	noname	0.0000
1177	H581     3.3270     6.7400   -16.7530	H	1	noname	0.0000
1178	H582     0.7610     6.8700   -18.3850	H	1	noname	0.0000
1179	H583     1.1410     5.6120   -17.2100	H	1	noname	0.0000
1180	H584     3.2010     5.0290   -18.5120	H	1	noname	0.0000
1181	H585     2.6940     6.1840   -19.7710	H	1	noname	0.0000
1182	H586     0.5780     4.9580   -20.0640	H	1	noname	0.0000
1183	H587     0.9840     3.8890   -18.7250	H	1	noname	0.0000
1184	H588     2.4070     4.0310   -21.4070	H	1	noname	0.0000
1185	H589     2.9810     3.0900   -20.0180	H	1	noname	0.0000
1186	H590     0.3240     2.7560   -21.2900	H	1	noname	0.0000
1187	H591     0.8260     1.9550   -19.9990	H	1	noname	0.0000
1188	H592     1.5780     1.6900   -21.4340	H	1	noname	0.0000
1189	C390     5.2650    10.7800   -18.2330	C.2	1	noname	0.0000
1190	C391     4.9000     9.5310   -19.0480	C.3	1	noname	0.0000
1191	N96     4.2380     8.4580   -18.2970	N.3	1	noname	0.0000
1192	O110     5.9400    11.6560   -18.7620	O.2	1	noname	0.0000
1193	H593     4.8040     7.6930   -17.9610	H	1	noname	0.0000
1194	H594     5.8210     9.1410   -19.4820	H	1	noname	0.0000
1195	H595     4.2510     9.8490   -19.8650	H	1	noname	0.0000
1196	C392     6.2050    11.5880   -14.9860	C.2	1	noname	0.0000
1197	C393     5.2120    11.9940   -16.0640	C.3	1	noname	0.0000
1198	N97     4.8680    10.8710   -16.9570	N.3	1	noname	0.0000
1199	O111     7.0860    12.3730   -14.6250	O.2	1	noname	0.0000
1200	C394     3.9340    12.5490   -15.4200	C.3	1	noname	0.0000
1201	C395     2.9120    13.0310   -16.4590	C.3	1	noname	0.0000
1202	C396     1.7180    13.7360   -15.8060	C.3	1	noname	0.0000
1203	C397     0.9440    13.0070   -13.5410	C.2	1	noname	0.0000
1204	N98     0.9820    12.8650   -14.8570	N.3	1	noname	0.0000
1205	N99     1.6600    13.8900   -12.9170	N.3	1	noname	0.0000
1206	N100     0.1540    12.2880   -12.8050	N.2	1	noname	0.0000
1207	H596     4.2770    10.1390   -16.5890	H	1	noname	0.0000
1208	H597     5.6890    12.7940   -16.6320	H	1	noname	0.0000
1209	H598     3.4820    11.7780   -14.7970	H	1	noname	0.0000
1210	H599     4.2020    13.3870   -14.7760	H	1	noname	0.0000
1211	H600     3.3970    13.7290   -17.1400	H	1	noname	0.0000
1212	H601     2.5430    12.1820   -17.0350	H	1	noname	0.0000
1213	H602     1.0370    14.0470   -16.5980	H	1	noname	0.0000
1214	H603     2.0740    14.6390   -15.3100	H	1	noname	0.0000
1215	H604     0.4430    12.0970   -15.2290	H	1	noname	0.0000
1216	H605     1.4250    14.0850   -11.9540	H	1	noname	0.0000
1217	H606     2.2590    14.5380   -13.4090	H	1	noname	0.0000
1218	H607    -0.4400    11.5770   -13.2060	H	1	noname	0.0000
1219	H608     0.1050    12.4770   -11.8140	H	1	noname	0.0000
1220	C398     7.8270     8.8170   -13.8310	C.2	1	noname	0.0000
1221	C399     6.8360     9.8730   -13.3390	C.3	1	noname	0.0000
1222	N101     6.0290    10.3860   -14.4410	N.3	1	noname	0.0000
1223	O112     7.5190     8.0320   -14.7250	O.2	1	noname	0.0000
1224	C400     5.9400     9.3240   -12.2190	C.3	1	noname	0.0000
1225	C401     5.0970    10.3130   -11.4200	C.2	1	noname	0.0000
1226	C402     4.8930    11.6540   -11.8160	C.2	1	noname	0.0000
1227	C403     4.4840     9.8600   -10.2370	C.2	1	noname	0.0000
1228	C404     4.0720    12.5100   -11.0690	C.2	1	noname	0.0000
1229	C405     3.6740    10.7220    -9.4780	C.2	1	noname	0.0000
1230	C406     3.4590    12.0430    -9.8990	C.2	1	noname	0.0000
1231	H609     5.2610     9.8170   -14.7670	H	1	noname	0.0000
1232	H610     7.4160    10.6940   -12.9170	H	1	noname	0.0000
1233	H611     5.2770     8.5700   -12.6430	H	1	noname	0.0000
1234	H612     6.5890     8.8150   -11.5060	H	1	noname	0.0000
1235	H613     5.3700    12.0750   -12.6890	H	1	noname	0.0000
1236	H614     4.6260     8.8400    -9.9130	H	1	noname	0.0000
1237	H615     3.9270    13.5340   -11.3820	H	1	noname	0.0000
1238	H616     3.2080    10.3720    -8.5690	H	1	noname	0.0000
1239	H617     2.8320    12.6970    -9.3110	H	1	noname	0.0000
1240	C407    10.5960     7.1960   -12.2050	C.2	1	noname	0.0000
1241	C408    10.0620     7.8030   -13.4980	C.3	1	noname	0.0000
1242	N102     8.9990     8.7660   -13.1980	N.3	1	noname	0.0000
1243	O113    11.2830     7.8620   -11.4280	O.2	1	noname	0.0000
1244	C409    11.2060     8.4450   -14.3000	C.3	1	noname	0.0000
1245	C410    12.2310     7.4090   -14.7640	C.3	1	noname	0.0000
1246	O114    10.7070     9.0630   -15.4600	O.3	1	noname	0.0000
1247	H618     9.1820     9.4760   -12.5030	H	1	noname	0.0000
1248	H619     9.6530     7.0070   -14.1200	H	1	noname	0.0000
1249	H620    11.7120     9.1970   -13.6940	H	1	noname	0.0000
1250	H621    11.4170     9.1160   -16.1040	H	1	noname	0.0000
1251	H622    13.0120     7.8970   -15.3460	H	1	noname	0.0000
1252	H623    11.7440     6.6520   -15.3780	H	1	noname	0.0000
1253	H624    12.6970     6.9260   -13.9050	H	1	noname	0.0000
1254	C411    12.3200     4.6660   -11.3410	C.2	1	noname	0.0000
1255	C412    10.9140     5.1150   -10.9210	C.3	1	noname	0.0000
1256	N103    10.3040     5.9130   -11.9830	N.3	1	noname	0.0000
1257	O115    12.5480     4.3010   -12.4930	O.2	1	noname	0.0000
1258	C413     9.9830     3.9510   -10.5130	C.3	1	noname	0.0000
1259	C414    10.4170     3.3570    -9.1560	C.3	1	noname	0.0000
1260	C415     9.8750     2.8680   -11.6020	C.3	1	noname	0.0000
1261	C416     9.4150     2.3370    -8.5970	C.3	1	noname	0.0000
1262	H625     9.6620     5.4360   -12.5990	H	1	noname	0.0000
1263	H626    11.0150     5.7620   -10.0490	H	1	noname	0.0000
1264	H627     8.9880     4.3740   -10.3730	H	1	noname	0.0000
1265	H628    10.4990     4.1680    -8.4320	H	1	noname	0.0000
1266	H629    11.3910     2.8780    -9.2500	H	1	noname	0.0000
1267	H630    10.8210     2.3370   -11.7110	H	1	noname	0.0000
1268	H631     9.6040     3.3120   -12.5600	H	1	noname	0.0000
1269	H632     9.0940     2.1510   -11.3460	H	1	noname	0.0000
1270	H633     8.4030     2.7390    -8.6370	H	1	noname	0.0000
1271	H634     9.6440     2.1080    -7.5560	H	1	noname	0.0000
1272	H635     9.4480     1.4150    -9.1770	H	1	noname	0.0000
1273	C417    15.1940     3.6800    -9.2790	C.2	1	noname	0.0000
1274	C418    14.6240     4.1640   -10.6090	C.3	1	noname	0.0000
1275	N104    13.2740     4.7090   -10.4170	N.3	1	noname	0.0000
1276	O116    14.6750     4.0230    -8.2200	O.2	1	noname	0.0000
1277	C419    15.5490     5.1960   -11.2680	C.3	1	noname	0.0000
1278	O117    15.5920     6.3960   -10.5220	O.3	1	noname	0.0000
1279	H636    13.0290     5.0310    -9.4910	H	1	noname	0.0000
1280	H637    14.5640     3.3000   -11.2710	H	1	noname	0.0000
1281	H638    15.1820     5.4110   -12.2720	H	1	noname	0.0000
1282	H639    16.5550     4.7850   -11.3540	H	1	noname	0.0000
1283	H640    14.7070     6.7670   -10.5480	H	1	noname	0.0000
1284	C420    18.3970     2.2830    -8.2200	C.2	1	noname	0.0000
1285	C421    16.8810     2.3180    -8.0980	C.3	1	noname	0.0000
1286	N105    16.2520     2.8670    -9.3070	N.3	1	noname	0.0000
1287	O118    18.9250     2.1330    -9.3170	O.2	1	noname	0.0000
1288	C422    16.2960     0.9310    -7.7680	C.3	1	noname	0.0000
1289	C423    16.6550    -0.1610    -8.7970	C.3	1	noname	0.0000
1290	C424    15.9190    -1.4770    -8.5160	C.3	1	noname	0.0000
1291	C425    15.7640    -3.0000    -6.5410	C.2	1	noname	0.0000
1292	N106    16.4030    -2.1230    -7.2870	N.3	1	noname	0.0000
1293	N107    14.5790    -3.4420    -6.8270	N.3	1	noname	0.0000
1294	N108    16.3320    -3.4500    -5.4690	N.2	1	noname	0.0000
1295	H641    16.6820     2.6490   -10.1940	H	1	noname	0.0000
1296	H642    16.6590     2.9750    -7.2570	H	1	noname	0.0000
1297	H643    16.6650     0.6250    -6.7890	H	1	noname	0.0000
1298	H644    15.2110     1.0170    -7.7020	H	1	noname	0.0000
1299	H645    16.3850     0.1770    -9.7970	H	1	noname	0.0000
1300	H646    17.7290    -0.3460    -8.7820	H	1	noname	0.0000
1301	H647    16.0860    -2.1580    -9.3510	H	1	noname	0.0000
1302	H648    14.8500    -1.2780    -8.4430	H	1	noname	0.0000
1303	H649    17.3700    -1.9830    -7.0290	H	1	noname	0.0000
1304	H650    14.1660    -4.1230    -6.2060	H	1	noname	0.0000
1305	H651    14.1900    -3.2840    -7.7450	H	1	noname	0.0000
1306	H652    15.8800    -4.1320    -4.8770	H	1	noname	0.0000
1307	H653    17.2370    -3.0880    -5.2050	H	1	noname	0.0000
1308	C426    20.7760     1.0600    -5.9440	C.2	1	noname	0.0000
1309	C427    20.5170     2.1860    -6.9500	C.3	1	noname	0.0000
1310	N109    19.0750     2.3730    -7.0850	N.3	1	noname	0.0000
1311	O119    20.6360     1.2340    -4.7310	O.2	1	noname	0.0000
1312	C428    21.1780     3.5140    -6.5490	C.3	1	noname	0.0000
1313	C429    22.7100     3.4490    -6.5130	C.2	1	noname	0.0000
1314	O120    23.2670     2.3300    -6.3850	O.2	1	noname	0.0000
1315	O121    23.3300     4.5390    -6.5830	O.3	1	noname	0.0000
1316	H654    18.5490     2.5160    -6.2350	H	1	noname	0.0000
1317	H655    20.9410     1.8920    -7.9100	H	1	noname	0.0000
1318	H656    20.8870     4.2730    -7.2750	H	1	noname	0.0000
1319	H657    20.8090     3.8260    -5.5720	H	1	noname	0.0000
1320	C430    22.6590    -1.1610    -4.7810	C.2	1	noname	0.0000
1321	C431    21.4000    -1.2960    -5.6430	C.3	1	noname	0.0000
1322	N110    21.1420    -0.1150    -6.4650	N.3	1	noname	0.0000
1323	O122    22.7380    -1.8160    -3.7510	O.2	1	noname	0.0000
1324	C432    21.4530    -2.5560    -6.5340	C.3	1	noname	0.0000
1325	C433    20.0800    -3.0540    -6.9590	C.2	1	noname	0.0000
1326	O123    19.0490    -2.5910    -6.4990	O.2	1	noname	0.0000
1327	N111    20.0090    -4.0320    -7.8330	N.3	1	noname	0.0000
1328	H658    21.2350    -0.1850    -7.4680	H	1	noname	0.0000
1329	H659    20.5800    -1.4010    -4.9320	H	1	noname	0.0000
1330	H660    21.9220    -3.3610    -5.9690	H	1	noname	0.0000
1331	H661    22.0640    -2.3660    -7.4170	H	1	noname	0.0000
1332	H662    19.0910    -4.3840    -8.0600	H	1	noname	0.0000
1333	H663    20.8420    -4.4260    -8.2460	H	1	noname	0.0000
1334	C434    24.5460     0.7640    -3.1150	C.2	1	noname	0.0000
1335	C435    24.8260    -0.0880    -4.3550	C.3	1	noname	0.0000
1336	N112    23.6190    -0.3120    -5.1610	N.3	1	noname	0.0000
1337	O124    25.2150     0.6150    -2.0960	O.2	1	noname	0.0000
1338	C436    25.9280     0.5430    -5.2110	C.3	1	noname	0.0000
1339	O125    25.6790     1.9020    -5.5250	O.3	1	noname	0.0000
1340	H664    23.4510     0.3040    -5.9430	H	1	noname	0.0000
1341	H665    25.1930    -1.0520    -4.0040	H	1	noname	0.0000
1342	H666    26.0420    -0.0270    -6.1330	H	1	noname	0.0000
1343	H667    26.8680     0.4870    -4.6610	H	1	noname	0.0000
1344	H668    24.8090     2.0170    -5.9140	H	1	noname	0.0000
1345	C437    21.8470     2.0340    -1.3700	C.2	1	noname	0.0000
1346	C438    23.0940     2.5220    -2.1030	C.3	1	noname	0.0000
1347	N113    23.5270     1.6300    -3.1900	N.3	1	noname	0.0000
1348	O126    21.3390     2.7550    -0.5160	O.2	1	noname	0.0000
1349	C439    22.8570     3.9330    -2.6550	C.3	1	noname	0.0000
1350	C440    24.1270     4.5580    -3.2340	C.3	1	noname	0.0000
1351	C441    23.8460     6.0060    -3.6360	C.3	1	noname	0.0000
1352	C442    25.0160     6.5380    -4.4650	C.3	1	noname	0.0000
1353	N114    24.5550     6.8740    -5.8250	N.3	1	noname	0.0000
1354	H669    23.0570     1.7040    -4.0810	H	1	noname	0.0000
1355	H670    23.8780     2.5720    -1.3470	H	1	noname	0.0000
1356	H671    22.0850     3.8890    -3.4240	H	1	noname	0.0000
1357	H672    22.5010     4.5750    -1.8490	H	1	noname	0.0000
1358	H673    24.9200     4.5400    -2.4850	H	1	noname	0.0000
1359	H674    24.4490     3.9890    -4.1060	H	1	noname	0.0000
1360	H675    22.9180     6.0440    -4.2060	H	1	noname	0.0000
1361	H676    23.7260     6.6130    -2.7380	H	1	noname	0.0000
1362	H677    25.4520     7.4070    -3.9710	H	1	noname	0.0000
1363	H678    25.7760     5.7590    -4.5250	H	1	noname	0.0000
1364	H679    25.3200     7.1350    -6.4300	H	1	noname	0.0000
1365	H680    23.8310     7.5780    -5.8100	H	1	noname	0.0000
1366	H681    24.1410     6.0390    -6.2150	H	1	noname	0.0000
1367	C443    18.9040     1.4430    -1.3020	C.2	1	noname	0.0000
1368	C444    20.0170     0.3770    -1.2450	C.3	1	noname	0.0000
1369	N115    21.3040     0.8740    -1.7380	N.3	1	noname	0.0000
1370	O127    18.1730     1.6390    -0.3340	O.2	1	noname	0.0000
1371	C445    20.1970    -0.2410     0.1510	C.3	1	noname	0.0000
1372	C446    21.1790    -1.3910     0.1790	C.2	1	noname	0.0000
1373	O128    21.3990    -2.0910    -0.7950	O.2	1	noname	0.0000
1374	N116    21.7840    -1.6400     1.3130	N.3	1	noname	0.0000
1375	H682    21.7990     0.3140    -2.4170	H	1	noname	0.0000
1376	H683    19.7060    -0.4210    -1.9190	H	1	noname	0.0000
1377	H684    19.2390    -0.6220     0.5040	H	1	noname	0.0000
1378	H685    20.5200     0.5300     0.8500	H	1	noname	0.0000
1379	H686    21.5620    -1.0810     2.1240	H	1	noname	0.0000
1380	H687    22.4600    -2.3910     1.3170	H	1	noname	0.0000
1381	C447    17.0060     3.2630    -3.7250	C.2	1	noname	0.0000
1382	C448    17.9220     3.3540    -2.5080	C.3	1	noname	0.0000
1383	N117    18.8230     2.1950    -2.4060	N.3	1	noname	0.0000
1384	O129    17.4500     2.9870    -4.8410	O.2	1	noname	0.0000
1385	C449    18.6980     4.6800    -2.5120	C.3	1	noname	0.0000
1386	C450    17.7660     5.8940    -2.4640	C.3	1	noname	0.0000
1387	O130    19.5260     4.8140    -1.3780	O.3	1	noname	0.0000
1388	H688    19.4230     1.9720    -3.1880	H	1	noname	0.0000
1389	H689    17.2800     3.3790    -1.6270	H	1	noname	0.0000
1390	H690    19.3170     4.7340    -3.4080	H	1	noname	0.0000
1391	H691    19.8930     3.9650    -1.1230	H	1	noname	0.0000
1392	H692    17.1960     5.9700    -3.3900	H	1	noname	0.0000
1393	H693    17.0820     5.8040    -1.6200	H	1	noname	0.0000
1394	H694    18.3540     6.8030    -2.3350	H	1	noname	0.0000
1395	C451    14.4530     5.2210    -4.7790	C.2	1	noname	0.0000
1396	C452    14.7010     3.7270    -4.5410	C.3	1	noname	0.0000
1397	N118    15.7230     3.5460    -3.5130	N.3	1	noname	0.0000
1398	O131    14.4800     6.0080    -3.8390	O.2	1	noname	0.0000
1399	C453    13.4290     3.0230    -4.0480	C.3	1	noname	0.0000
1400	C454    12.2620     3.0130    -5.0470	C.3	1	noname	0.0000
1401	C455    12.5700     2.0590    -6.1950	C.3	1	noname	0.0000
1402	C456    10.9930     2.5880    -4.3150	C.3	1	noname	0.0000
1403	H695    15.4520     3.7510    -2.5620	H	1	noname	0.0000
1404	H696    15.0340     3.2700    -5.4730	H	1	noname	0.0000
1405	H697    13.1030     3.5270    -3.1380	H	1	noname	0.0000
1406	H698    13.6710     1.9950    -3.7770	H	1	noname	0.0000
1407	H699    12.0910     4.0100    -5.4530	H	1	noname	0.0000
1408	H700    12.8370     1.0780    -5.8040	H	1	noname	0.0000
1409	H701    11.6940     1.9670    -6.8360	H	1	noname	0.0000
1410	H702    13.3970     2.4430    -6.7920	H	1	noname	0.0000
1411	H703    10.6540     3.3980    -3.6690	H	1	noname	0.0000
1412	H704    11.1940     1.7330    -3.6690	H	1	noname	0.0000
1413	H705    10.1940     2.3490    -5.0170	H	1	noname	0.0000
1414	C457    12.5300     7.0470    -7.1920	C.2	1	noname	0.0000
1415	C458    13.8240     6.9870    -6.3840	C.3	1	noname	0.0000
1416	N119    14.1530     5.6140    -6.0120	N.3	1	noname	0.0000
1417	O132    12.2630     6.1640    -8.0080	O.2	1	noname	0.0000
1418	C459    14.9680     7.6020    -7.1980	C.3	1	noname	0.0000
1419	C460    16.3160     7.5970    -6.5070	C.2	1	noname	0.0000
1420	C461    16.5850     8.5330    -5.4920	C.2	1	noname	0.0000
1421	C462    17.2910     6.6460    -6.8650	C.2	1	noname	0.0000
1422	C463    17.8260     8.5160    -4.8260	C.2	1	noname	0.0000
1423	C464    18.5340     6.6280    -6.2040	C.2	1	noname	0.0000
1424	C465    18.8030     7.5570    -5.1780	C.2	1	noname	0.0000
1425	O133    19.9960     7.5210    -4.5290	O.3	1	noname	0.0000
1426	H706    14.1460     4.9250    -6.7510	H	1	noname	0.0000
1427	H707    13.6850     7.5830    -5.4820	H	1	noname	0.0000
1428	H708    15.0500     7.0510    -8.1350	H	1	noname	0.0000
1429	H709    14.7070     8.6310    -7.4450	H	1	noname	0.0000
1430	H710    15.8160     9.2290    -5.1900	H	1	noname	0.0000
1431	H711    17.0740     5.9120    -7.6270	H	1	noname	0.0000
1432	H712    18.0180     9.2090    -4.0200	H	1	noname	0.0000
1433	H713    19.2750     5.8820    -6.4510	H	1	noname	0.0000
1434	H714    19.9800     8.0480    -3.7270	H	1	noname	0.0000
1435	C466    10.8790     9.9490    -8.3600	C.2	1	noname	0.0000
1436	C467    10.6690     8.5110    -7.8960	C.3	1	noname	0.0000
1437	N120    11.7780     8.1340    -7.0220	N.3	1	noname	0.0000
1438	O134    10.7370    10.8890    -7.5790	O.2	1	noname	0.0000
1439	C468     9.3360     8.3410    -7.1510	C.3	1	noname	0.0000
1440	C469     8.0790     8.5220    -8.0180	C.3	1	noname	0.0000
1441	C470     7.9600     7.4230    -9.0760	C.3	1	noname	0.0000
1442	C471     6.8380     8.4800    -7.1280	C.3	1	noname	0.0000
1443	H715    12.0450     8.7910    -6.3030	H	1	noname	0.0000
1444	H716    10.6650     7.8620    -8.7710	H	1	noname	0.0000
1445	H717     9.3020     7.3400    -6.7200	H	1	noname	0.0000
1446	H718     9.2950     9.0590    -6.3320	H	1	noname	0.0000
1447	H719     8.1160     9.4900    -8.5180	H	1	noname	0.0000
1448	H720     8.0330     6.4420    -8.6060	H	1	noname	0.0000
1449	H721     6.9930     7.4950    -9.5740	H	1	noname	0.0000
1450	H722     8.7440     7.5310    -9.8250	H	1	noname	0.0000
1451	H723     5.9420     8.6240    -7.7310	H	1	noname	0.0000
1452	H724     6.8820     9.2850    -6.3950	H	1	noname	0.0000
1453	H725     6.7760     7.5230    -6.6080	H	1	noname	0.0000
1454	C472     9.8390    11.7570   -10.7230	C.2	1	noname	0.0000
1455	C473    11.2560    11.4320   -10.2600	C.3	1	noname	0.0000
1456	N121    11.2410    10.1200    -9.6270	N.3	1	noname	0.0000
1457	O135     9.2800    11.0210   -11.5310	O.2	1	noname	0.0000
1458	C474    12.2580    11.4350   -11.4230	C.3	1	noname	0.0000
1459	C475    12.3260    12.7910   -12.1440	C.3	1	noname	0.0000
1460	C476    12.7700    13.9280   -11.2290	C.2	1	noname	0.0000
1461	O136    13.6550    13.7760   -10.3980	O.2	1	noname	0.0000
1462	N122    12.1740    15.0930   -11.3430	N.3	1	noname	0.0000
1463	H726    11.3210     9.3070   -10.2210	H	1	noname	0.0000
1464	H727    11.5670    12.1810    -9.5320	H	1	noname	0.0000
1465	H728    11.9670    10.6730   -12.1460	H	1	noname	0.0000
1466	H729    13.2480    11.1810   -11.0440	H	1	noname	0.0000
1467	H730    11.3470    13.0260   -12.5620	H	1	noname	0.0000
1468	H731    13.0310    12.7200   -12.9720	H	1	noname	0.0000
1469	H732    11.5010    15.2710   -12.0740	H	1	noname	0.0000
1470	H733    12.4840    15.8330   -10.7300	H	1	noname	0.0000
1471	C477     8.0270    14.6200   -11.3530	C.2	1	noname	0.0000
1472	C478     7.9290    13.3030   -10.5940	C.3	1	noname	0.0000
1473	N123     9.2710    12.8550   -10.2400	N.3	1	noname	0.0000
1474	O137     8.5250    15.6050   -10.8100	O.2	1	noname	0.0000
1475	C479     7.0810    13.4820    -9.3330	C.3	1	noname	0.0000
1476	C480     7.0200    12.2260    -8.4580	C.3	1	noname	0.0000
1477	S4     5.8960    12.3370    -7.0400	S.3	1	noname	0.0000
1478	C481     6.4270    13.8950    -6.2980	C.3	1	noname	0.0000
1479	H734     9.7730    13.4140    -9.5640	H	1	noname	0.0000
1480	H735     7.4370    12.5660   -11.2290	H	1	noname	0.0000
1481	H736     7.4940    14.3030    -8.7470	H	1	noname	0.0000
1482	H737     6.0690    13.7500    -9.6380	H	1	noname	0.0000
1483	H738     6.7020    11.3850    -9.0750	H	1	noname	0.0000
1484	H739     8.0180    12.0110    -8.0770	H	1	noname	0.0000
1485	H740     5.9140    14.0340    -5.3460	H	1	noname	0.0000
1486	H741     6.1710    14.7270    -6.9540	H	1	noname	0.0000
1487	H742     7.5020    13.8600    -6.1220	H	1	noname	0.0000
1488	C482     6.0950    16.2460   -13.7490	C.2	1	noname	0.0000
1489	C483     7.5350    15.8460   -13.4280	C.3	1	noname	0.0000
1490	N124     7.5550    14.6460   -12.5960	N.3	1	noname	0.0000
1491	O138     5.1940    15.4050   -13.7290	O.2	1	noname	0.0000
1492	C484     8.3530    15.6020   -14.7030	C.3	1	noname	0.0000
1493	C485     9.7420    15.0720   -14.4060	C.2	1	noname	0.0000
1494	O139    10.5620    15.7020   -13.7550	O.2	1	noname	0.0000
1495	N125    10.0300    13.8650   -14.8320	N.3	1	noname	0.0000
1496	H743     7.1690    13.8040   -12.9970	H	1	noname	0.0000
1497	H744     7.9930    16.6770   -12.8910	H	1	noname	0.0000
1498	H745     8.4590    16.5350   -15.2570	H	1	noname	0.0000
1499	H746     7.8220    14.8950   -15.3390	H	1	noname	0.0000
1500	H747    10.9630    13.5150   -14.6690	H	1	noname	0.0000
1501	H748     9.3000    13.3040   -15.2480	H	1	noname	0.0000
1502	C486     3.4840    17.6900   -13.4530	C.2	1	noname	0.0000
1503	C487     4.5750    18.0570   -14.4670	C.3	1	noname	0.0000
1504	N126     5.8870    17.5240   -14.0780	N.3	1	noname	0.0000
1505	O140     2.4410    17.1340   -13.8140	O.2	1	noname	0.0000
1506	C488     4.2140    17.6250   -15.8950	C.3	1	noname	0.0000
1507	O141     5.2430    17.9710   -16.8040	O.3	1	noname	0.0000
1508	H749     6.6600    18.1720   -14.0350	H	1	noname	0.0000
1509	H750     4.6500    19.1440   -14.4600	H	1	noname	0.0000
1510	H751     3.2880    18.1150   -16.1960	H	1	noname	0.0000
1511	H752     4.0650    16.5460   -15.9230	H	1	noname	0.0000
1512	H753     5.3910    18.9190   -16.7670	H	1	noname	0.0000
1513	C489     1.5680    18.3640   -11.1420	C.2	1	noname	0.0000
1514	C490     2.8990    17.6190   -11.0530	C.3	1	noname	0.0000
1515	N127     3.7750    17.9470   -12.1750	N.3	1	noname	0.0000
1516	O142     1.5190    19.5420   -11.5020	O.2	1	noname	0.0000
1517	C491     3.6230    17.9360    -9.7340	C.3	1	noname	0.0000
1518	C492     4.5920    16.8200    -9.3140	C.3	1	noname	0.0000
1519	C493     5.5400    17.3190    -8.2310	C.3	1	noname	0.0000
1520	C494     3.8350    15.6140    -8.7520	C.3	1	noname	0.0000
1521	H754     4.6580    18.3900   -11.9640	H	1	noname	0.0000
1522	H755     2.6700    16.5550   -11.0960	H	1	noname	0.0000
1523	H756     4.1600    18.8780    -9.8440	H	1	noname	0.0000
1524	H757     2.8890    18.0760    -8.9410	H	1	noname	0.0000
1525	H758     5.1880    16.5090   -10.1710	H	1	noname	0.0000
1526	H759     6.0080    18.2480    -8.5560	H	1	noname	0.0000
1527	H760     4.9850    17.4690    -7.3050	H	1	noname	0.0000
1528	H761     6.3240    16.5780    -8.0740	H	1	noname	0.0000
1529	H762     4.5310    14.8460    -8.4150	H	1	noname	0.0000
1530	H763     3.1970    15.1760    -9.5190	H	1	noname	0.0000
1531	H764     3.2150    15.9150    -7.9080	H	1	noname	0.0000
1532	C495    -1.4670    18.1920    -9.4000	C.2	1	noname	0.0000
1533	C496    -0.8800    18.1980   -10.8050	C.3	1	noname	0.0000
1534	N128     0.4870    17.6700   -10.7940	N.3	1	noname	0.0000
1535	O143    -0.9480    17.5110    -8.5200	O.2	1	noname	0.0000
1536	C497    -1.7500    17.3720   -11.7530	C.3	1	noname	0.0000
1537	C498    -1.1610    17.1660   -13.1510	C.3	1	noname	0.0000
1538	C499    -2.1170    16.2920   -13.9600	C.3	1	noname	0.0000
1539	C500    -2.0430    15.2020   -16.1960	C.2	1	noname	0.0000
1540	N129    -1.6240    16.1130   -15.3380	N.3	1	noname	0.0000
1541	N130    -2.9450    14.3180   -15.8710	N.3	1	noname	0.0000
1542	N131    -1.5580    15.1630   -17.4060	N.2	1	noname	0.0000
1543	H765     0.6110    16.7080   -10.5140	H	1	noname	0.0000
1544	H766    -0.8750    19.2320   -11.1500	H	1	noname	0.0000
1545	H767    -2.6920    17.9080   -11.8740	H	1	noname	0.0000
1546	H768    -1.9410    16.3990   -11.3010	H	1	noname	0.0000
1547	H769    -0.2000    16.6570   -13.0860	H	1	noname	0.0000
1548	H770    -1.0310    18.1330   -13.6380	H	1	noname	0.0000
1549	H771    -3.1000    16.7620   -13.9770	H	1	noname	0.0000
1550	H772    -2.2030    15.3280   -13.4590	H	1	noname	0.0000
1551	H773    -0.9160    16.7650   -15.6440	H	1	noname	0.0000
1552	H774    -3.2710    13.6190   -16.5220	H	1	noname	0.0000
1553	H775    -3.3470    14.3690   -14.9460	H	1	noname	0.0000
1554	H776    -0.9060    15.8710   -17.7100	H	1	noname	0.0000
1555	H777    -1.9120    14.4790   -18.0590	H	1	noname	0.0000
1556	C501    -3.6220    17.5510    -7.4070	C.2	1	noname	0.0000
1557	C502    -3.2380    18.9620    -7.8940	C.3	1	noname	0.0000
1558	N132    -2.5600    18.9230    -9.1900	N.3	1	noname	0.0000
1559	O144    -3.4860    17.2550    -6.2210	O.2	1	noname	0.0000
1560	C503    -4.4660    19.8670    -8.0230	C.3	1	noname	0.0000
1561	H778    -3.0140    19.3620    -9.9780	H	1	noname	0.0000
1562	H779    -2.5710    19.3980    -7.1500	H	1	noname	0.0000
1563	H780    -4.1610    20.8690    -8.3220	H	1	noname	0.0000
1564	H781    -4.9750    19.9260    -7.0610	H	1	noname	0.0000
1565	H782    -5.1550    19.4600    -8.7630	H	1	noname	0.0000
1566	C504    -3.1940    14.3960    -7.6140	C.2	1	noname	0.0000
1567	C505    -4.3760    15.2680    -8.0610	C.3	1	noname	0.0000
1568	N133    -4.0020    16.6620    -8.3320	N.3	1	noname	0.0000
1569	O145    -3.4020    13.3140    -7.0720	O.2	1	noname	0.0000
1570	C506    -5.0200    14.6210    -9.3050	C.3	1	noname	0.0000
1571	C507    -6.2100    15.3860    -9.9160	C.3	1	noname	0.0000
1572	C508    -5.8050    16.6390   -10.7090	C.2	1	noname	0.0000
1573	O146    -6.6410    17.5520   -10.8490	O.2	1	noname	0.0000
1574	O147    -4.6310    16.7160   -11.1420	O.3	1	noname	0.0000
1575	H783    -4.0760    16.9680    -9.2920	H	1	noname	0.0000
1576	H784    -5.1060    15.2530    -7.2520	H	1	noname	0.0000
1577	H785    -5.3860    13.6380    -9.0090	H	1	noname	0.0000
1578	H786    -4.2580    14.4560   -10.0660	H	1	noname	0.0000
1579	H787    -6.9010    15.6540    -9.1170	H	1	noname	0.0000
1580	H788    -6.7330    14.7090   -10.5920	H	1	noname	0.0000
1581	C509    -0.4950    14.4670    -5.8190	C.2	1	noname	0.0000
1582	C510    -0.7690    14.1570    -7.3050	C.3	1	noname	0.0000
1583	N134    -1.9530    14.8510    -7.8100	N.3	1	noname	0.0000
1584	O148     0.4360    13.8940    -5.2510	O.2	1	noname	0.0000
1585	C511     0.4560    14.4490    -8.1880	C.3	1	noname	0.0000
1586	C512     0.3150    14.0310    -9.6590	C.2	1	noname	0.0000
1587	O149    -0.1260    12.8960    -9.9700	O.2	1	noname	0.0000
1588	O150     0.7650    14.8130   -10.5290	O.3	1	noname	0.0000
1589	H789    -1.8290    15.7660    -8.2190	H	1	noname	0.0000
1590	H790    -0.9600    13.0850    -7.3560	H	1	noname	0.0000
1591	H791     1.3130    13.9160    -7.7760	H	1	noname	0.0000
1592	H792     0.6850    15.5130    -8.1340	H	1	noname	0.0000
1593	C513    -1.6570    14.4130    -2.9240	C.2	1	noname	0.0000
1594	C514    -1.2300    15.6280    -3.7400	C.3	1	noname	0.0000
1595	N135    -1.2930    15.3380    -5.1830	N.3	1	noname	0.0000
1596	O151    -2.8310    14.0400    -2.9040	O.2	1	noname	0.0000
1597	C515    -2.1170    16.8210    -3.3590	C.3	1	noname	0.0000
1598	C516    -2.1330    17.1270    -1.8580	C.3	1	noname	0.0000
1599	O152    -1.6630    17.9760    -4.0230	O.3	1	noname	0.0000
1600	H793    -2.0470    15.7530    -5.7120	H	1	noname	0.0000
1601	H794    -0.1990    15.8790    -3.4890	H	1	noname	0.0000
1602	H795    -3.1420    16.6240    -3.6740	H	1	noname	0.0000
1603	H796    -2.1750    18.0070    -4.8350	H	1	noname	0.0000
1604	H797    -2.6050    18.0960    -1.6880	H	1	noname	0.0000
1605	H798    -1.1210    17.1360    -1.4530	H	1	noname	0.0000
1606	H799    -2.7130    16.3670    -1.3340	H	1	noname	0.0000
1607	C517     0.2640    12.3350    -0.4950	C.2	1	noname	0.0000
1608	C518    -0.9180    12.5940    -1.4380	C.3	1	noname	0.0000
1609	N136    -0.7060    13.8020    -2.2250	N.3	1	noname	0.0000
1610	O153     1.3460    12.9070    -0.6550	O.2	1	noname	0.0000
1611	C519    -1.0980    11.4160    -2.4090	C.3	1	noname	0.0000
1612	H800     0.2220    14.2010    -2.2230	H	1	noname	0.0000
1613	H801    -1.8180    12.7040    -0.8320	H	1	noname	0.0000
1614	H802    -0.2480    11.3690    -3.0900	H	1	noname	0.0000
1615	H803    -2.0110    11.5390    -2.9910	H	1	noname	0.0000
1616	H804    -1.1560    10.4790    -1.8550	H	1	noname	0.0000
1617	C520     1.6840     9.6280     0.2330	C.2	1	noname	0.0000
1618	C521     1.1960    10.7590     1.1310	C.3	1	noname	0.0000
1619	N137     0.0740    11.4230     0.4580	N.3	1	noname	0.0000
1620	O154     0.8770     8.8170    -0.2160	O.2	1	noname	0.0000
1621	C522     0.8140    10.2350     2.5260	C.3	1	noname	0.0000
1622	C523     2.0360     9.6210     3.2220	C.3	1	noname	0.0000
1623	C524     0.2920    11.3760     3.4100	C.3	1	noname	0.0000
1624	H805    -0.8350    10.9900     0.5330	H	1	noname	0.0000
1625	H806     2.0090    11.4750     1.2600	H	1	noname	0.0000
1626	H807     0.0360     9.4770     2.4340	H	1	noname	0.0000
1627	H808     1.7730     9.3160     4.2340	H	1	noname	0.0000
1628	H809     2.8480    10.3460     3.2740	H	1	noname	0.0000
1629	H810     2.3750     8.7360     2.6840	H	1	noname	0.0000
1630	H811     1.0450    12.1590     3.4930	H	1	noname	0.0000
1631	H812     0.0630    10.9910     4.4040	H	1	noname	0.0000
1632	H813    -0.6230    11.7910     2.9880	H	1	noname	0.0000
1633	C525     4.4350     7.6210     0.0270	C.2	1	noname	0.0000
1634	C526     3.6250     8.5530    -0.8600	C.3	1	noname	0.0000
1635	N138     2.9830     9.5790    -0.0420	N.3	1	noname	0.0000
1636	O155     5.3400     8.0770     0.7190	O.2	1	noname	0.0000
1637	C527     4.5360     9.1980    -1.9110	C.3	1	noname	0.0000
1638	C528     3.7890     9.8410    -3.0590	C.2	1	noname	0.0000
1639	C529     3.7310     9.2070    -4.3160	C.2	1	noname	0.0000
1640	C530     3.1360    11.0690    -2.8600	C.2	1	noname	0.0000
1641	C531     3.0100     9.8020    -5.3720	C.2	1	noname	0.0000
1642	C532     2.3990    11.6500    -3.9030	C.2	1	noname	0.0000
1643	C533     2.3330    11.0220    -5.1620	C.2	1	noname	0.0000
1644	O156     1.5890    11.5830    -6.1520	O.3	1	noname	0.0000
1645	H814     3.5770    10.2930     0.3540	H	1	noname	0.0000
1646	H815     2.8720     7.9630    -1.3820	H	1	noname	0.0000
1647	H816     5.1640     9.9480    -1.4300	H	1	noname	0.0000
1648	H817     5.1980     8.4340    -2.3180	H	1	noname	0.0000
1649	H818     4.2330     8.2630    -4.4690	H	1	noname	0.0000
1650	H819     3.1830    11.5590    -1.8980	H	1	noname	0.0000
1651	H820     2.9590     9.3260    -6.3400	H	1	noname	0.0000
1652	H821     1.8590    12.5690    -3.7330	H	1	noname	0.0000
1653	H822     1.2360    12.4210    -5.8440	H	1	noname	0.0000
1654	C534     5.6760     4.4740    -0.3360	C.2	1	noname	0.0000
1655	C535     4.8210     5.2550     0.6540	C.3	1	noname	0.0000
1656	N139     4.1380     6.3310    -0.0480	N.3	1	noname	0.0000
1657	O157     5.1830     4.0730    -1.3960	O.2	1	noname	0.0000
1658	C536     3.7860     4.3260     1.3010	C.3	1	noname	0.0000
1659	C537     2.7780     5.0320     2.1840	C.2	1	noname	0.0000
1660	C538     3.0930     5.2840     3.5310	C.2	1	noname	0.0000
1661	C539     1.5450     5.4640     1.6550	C.2	1	noname	0.0000
1662	C540     2.1830     5.9710     4.3530	C.2	1	noname	0.0000
1663	C541     0.6310     6.1520     2.4760	C.2	1	noname	0.0000
1664	C542     0.9510     6.4080     3.8250	C.2	1	noname	0.0000
1665	O158     0.0840     7.0910     4.6140	O.3	1	noname	0.0000
1666	H823     3.3900     6.0530    -0.6680	H	1	noname	0.0000
1667	H824     5.4580     5.6620     1.4380	H	1	noname	0.0000
1668	H825     4.3220     3.5870     1.8970	H	1	noname	0.0000
1669	H826     3.2470     3.7910     0.5190	H	1	noname	0.0000
1670	H827     4.0440     4.9640     3.9290	H	1	noname	0.0000
1671	H828     1.3080     5.2810     0.6170	H	1	noname	0.0000
1672	H829     2.4420     6.1780     5.3810	H	1	noname	0.0000
1673	H830    -0.3140     6.4980     2.0850	H	1	noname	0.0000
1674	H831     0.4550     7.2370     5.4880	H	1	noname	0.0000
1675	C543     7.3510     1.8260     0.0460	C.2	1	noname	0.0000
1676	C544     7.6720     3.1510    -0.6440	C.3	1	noname	0.0000
1677	N140     6.9330     4.2180     0.0050	N.3	1	noname	0.0000
1678	O159     7.1810     1.7550     1.2640	O.2	1	noname	0.0000
1679	C545     9.1710     3.4390    -0.6960	C.3	1	noname	0.0000
1680	S5     9.9820     3.5670     0.9090	S.3	1	noname	0.0000
1681	H832     7.2610     4.5410     0.9050	H	1	noname	0.0000
1682	H833     7.3390     3.0800    -1.6800	H	1	noname	0.0000
1683	H834     9.6490     2.6370    -1.2590	H	1	noname	0.0000
1684	H835     9.3220     4.3730    -1.2370	H	1	noname	0.0000
1685	C546     7.9840    -1.5780    -0.8950	C.2	1	noname	0.0000
1686	C547     7.0460    -0.5730    -0.2330	C.3	1	noname	0.0000
1687	N141     7.2810     0.7630    -0.7420	N.3	1	noname	0.0000
1688	O160     8.3190    -1.4580    -2.0790	O.2	1	noname	0.0000
1689	C548     5.5660    -0.9290    -0.3990	C.3	1	noname	0.0000
1690	H836     7.3700     0.8860    -1.7400	H	1	noname	0.0000
1691	H837     7.2700    -0.5780     0.8330	H	1	noname	0.0000
1692	H838     4.9540    -0.2310     0.1720	H	1	noname	0.0000
1693	H839     5.3910    -1.9360    -0.0220	H	1	noname	0.0000
1694	H840     5.2830    -0.8740    -1.4510	H	1	noname	0.0000
1695	C549     8.1170    -4.6570    -1.3060	C.2	1	noname	0.0000
1696	C550     9.1170    -3.7420    -0.6230	C.3	1	noname	0.0000
1697	N142     8.4130    -2.5690    -0.1150	N.3	1	noname	0.0000
1698	O161     7.0750    -4.9460    -0.7340	O.2	1	noname	0.0000
1699	C551     9.8350    -4.4550     0.5250	C.3	1	noname	0.0000
1700	C552    10.7480    -5.5620    -0.0130	C.3	1	noname	0.0000
1701	C553    11.4400    -6.2920     1.1350	C.3	1	noname	0.0000
1702	C554    11.0080    -8.2480     2.5690	C.2	1	noname	0.0000
1703	N143    10.5800    -7.3260     1.7320	N.3	1	noname	0.0000
1704	N144    12.1580    -8.1410     3.1750	N.3	1	noname	0.0000
1705	N145    10.3060    -9.3030     2.8220	N.2	1	noname	0.0000
1706	H841     8.0420    -2.6040     0.8240	H	1	noname	0.0000
1707	H842     9.8460    -3.4280    -1.3710	H	1	noname	0.0000
1708	H843     9.0970    -4.8810     1.2050	H	1	noname	0.0000
1709	H844    10.4410    -3.7320     1.0710	H	1	noname	0.0000
1710	H845    10.1830    -6.2830    -0.6040	H	1	noname	0.0000
1711	H846    11.5080    -5.1070    -0.6470	H	1	noname	0.0000
1712	H847    12.3320    -6.7720     0.7320	H	1	noname	0.0000
1713	H848    11.7500    -5.5710     1.8910	H	1	noname	0.0000
1714	H849     9.6090    -7.3730     1.4580	H	1	noname	0.0000
1715	H850    12.4150    -8.8180     3.8790	H	1	noname	0.0000
1716	H851    12.6680    -7.2790     3.0520	H	1	noname	0.0000
1717	H852     9.3500    -9.3180     2.4960	H	1	noname	0.0000
1718	H853    10.6190   -10.0300     3.4490	H	1	noname	0.0000
1719	C555     8.3800    -7.4230    -3.2840	C.2	1	noname	0.0000
1720	C556     7.6690    -6.0660    -3.2670	C.3	1	noname	0.0000
1721	N146     8.4600    -5.1110    -2.5010	N.3	1	noname	0.0000
1722	O162     9.5090    -7.5630    -3.7800	O.2	1	noname	0.0000
1723	C557     7.4160    -5.5030    -4.6710	C.3	1	noname	0.0000
1724	C558     6.5090    -6.3790    -5.5390	C.2	1	noname	0.0000
1725	O163     6.5220    -7.6210    -5.3740	O.2	1	noname	0.0000
1726	O164     5.8560    -5.7910    -6.4220	O.3	1	noname	0.0000
1727	H854     9.3560    -4.8450    -2.8850	H	1	noname	0.0000
1728	H855     6.6950    -6.1990    -2.7980	H	1	noname	0.0000
1729	H856     6.9650    -4.5150    -4.5720	H	1	noname	0.0000
1730	H857     8.3680    -5.3820    -5.1890	H	1	noname	0.0000
1731	C559     6.9900   -10.6040    -3.5970	C.2	1	noname	0.0000
1732	C560     8.0770    -9.8240    -2.8550	C.3	1	noname	0.0000
1733	N147     7.7000    -8.4270    -2.7360	N.3	1	noname	0.0000
1734	O165     6.0110   -11.0590    -3.0030	O.2	1	noname	0.0000
1735	C561     8.3790   -10.3980    -1.4690	C.3	1	noname	0.0000
1736	C562     8.8570   -11.8360    -1.5190	C.2	1	noname	0.0000
1737	C563     8.1020   -12.8510    -0.9010	C.2	1	noname	0.0000
1738	C564    10.0450   -12.1620    -2.2030	C.2	1	noname	0.0000
1739	C565     8.5360   -14.1900    -0.9560	C.2	1	noname	0.0000
1740	C566    10.4840   -13.4980    -2.2590	C.2	1	noname	0.0000
1741	C567     9.7320   -14.5120    -1.6340	C.2	1	noname	0.0000
1742	O166    10.1620   -15.7990    -1.6860	O.3	1	noname	0.0000
1743	H858     6.7990    -8.2170    -2.3300	H	1	noname	0.0000
1744	H859     8.9900    -9.8980    -3.4470	H	1	noname	0.0000
1745	H860     9.1510    -9.7930    -0.9930	H	1	noname	0.0000
1746	H861     7.4840   -10.3250    -0.8500	H	1	noname	0.0000
1747	H862     7.1850   -12.5980    -0.3900	H	1	noname	0.0000
1748	H863    10.6250   -11.3900    -2.6860	H	1	noname	0.0000
1749	H864     7.9520   -14.9640    -0.4810	H	1	noname	0.0000
1750	H865    11.3950   -13.7570    -2.7790	H	1	noname	0.0000
1751	H866     9.5510   -16.3920    -1.2420	H	1	noname	0.0000
1752	C568     4.8600   -11.0090    -5.7460	C.2	1	noname	0.0000
1753	C569     6.2980   -11.5650    -5.7770	C.3	1	noname	0.0000
1754	N148     7.1940   -10.7860    -4.9040	N.3	1	noname	0.0000
1755	O167     3.8960   -11.7510    -5.5770	O.2	1	noname	0.0000
1756	C570     6.3920   -13.0880    -5.4820	C.3	1	noname	0.0000
1757	C571     5.8410   -13.9300    -6.6420	C.3	1	noname	0.0000
1758	C572     7.8400   -13.5650    -5.2620	C.3	1	noname	0.0000
1759	H867     7.9360   -10.2520    -5.3340	H	1	noname	0.0000
1760	H868     6.6480   -11.4150    -6.7990	H	1	noname	0.0000
1761	H869     5.8260   -13.3220    -4.5800	H	1	noname	0.0000
1762	H870     6.4080   -13.7350    -7.5520	H	1	noname	0.0000
1763	H871     5.9040   -14.9900    -6.3960	H	1	noname	0.0000
1764	H872     4.7930   -13.6920    -6.8250	H	1	noname	0.0000
1765	H873     8.4620   -13.2850    -6.1120	H	1	noname	0.0000
1766	H874     8.2460   -13.1250    -4.3510	H	1	noname	0.0000
1767	H875     7.8600   -14.6480    -5.1390	H	1	noname	0.0000
1768	C573     2.9080    -8.6280    -4.4350	C.2	1	noname	0.0000
1769	C574     3.4400    -8.9600    -5.8340	C.3	1	noname	0.0000
1770	N149     4.7180    -9.6830    -5.8480	N.3	1	noname	0.0000
1771	O168     1.9300    -7.8870    -4.2960	O.2	1	noname	0.0000
1772	H876     5.5410    -9.0990    -5.8790	H	1	noname	0.0000
1773	H877     2.6890    -9.5570    -6.3520	H	1	noname	0.0000
1774	H878     3.5630    -8.0230    -6.3760	H	1	noname	0.0000
1775	C575     3.9490    -7.6210    -1.5160	C.2	1	noname	0.0000
1776	C576     3.1760    -8.8450    -1.9980	C.3	1	noname	0.0000
1777	N150     3.5410    -9.1490    -3.3780	N.3	1	noname	0.0000
1778	O169     5.1700    -7.6780    -1.3580	O.2	1	noname	0.0000
1779	C577     3.4250   -10.0630    -1.0960	C.3	1	noname	0.0000
1780	C578     2.7040   -11.3060    -1.5770	C.2	1	noname	0.0000
1781	O170     1.5920   -11.2720    -2.0710	O.2	1	noname	0.0000
1782	N151     3.3250   -12.4530    -1.4640	N.3	1	noname	0.0000
1783	H879     4.3390    -9.7450    -3.5470	H	1	noname	0.0000
1784	H880     2.1130    -8.6100    -1.9550	H	1	noname	0.0000
1785	H881     3.0790    -9.8430    -0.0860	H	1	noname	0.0000
1786	H882     4.4960   -10.2610    -1.0510	H	1	noname	0.0000
1787	H883     4.3160   -12.4370    -1.2700	H	1	noname	0.0000
1788	H884     2.8710   -13.2290    -1.9240	H	1	noname	0.0000
1789	C579     3.8500    -5.6010     0.9230	C.2	1	noname	0.0000
1790	C580     3.8050    -5.3620    -0.5830	C.3	1	noname	0.0000
1791	N152     3.2290    -6.5350    -1.2330	N.3	1	noname	0.0000
1792	O171     2.8430    -5.4080     1.5970	O.2	1	noname	0.0000
1793	C581     3.0170    -4.0970    -0.9530	C.3	1	noname	0.0000
1794	C582     2.9670    -3.7900    -2.4570	C.3	1	noname	0.0000
1795	C583     2.1880    -2.4930    -2.6560	C.3	1	noname	0.0000
1796	C584     4.3540    -3.6300    -3.0800	C.3	1	noname	0.0000
1797	H885     2.2430    -6.5380    -1.4500	H	1	noname	0.0000
1798	H886     4.8290    -5.2320    -0.9340	H	1	noname	0.0000
1799	H887     1.9920    -4.1930    -0.5940	H	1	noname	0.0000
1800	H888     3.4700    -3.2510    -0.4370	H	1	noname	0.0000
1801	H889     2.4370    -4.5880    -2.9770	H	1	noname	0.0000
1802	H890     1.1860    -2.6170    -2.2450	H	1	noname	0.0000
1803	H891     2.6940    -1.6720    -2.1480	H	1	noname	0.0000
1804	H892     2.1070    -2.2760    -3.7210	H	1	noname	0.0000
1805	H893     4.2590    -3.3240    -4.1220	H	1	noname	0.0000
1806	H894     4.8720    -4.5890    -3.0670	H	1	noname	0.0000
1807	H895     4.9430    -2.8960    -2.5290	H	1	noname	0.0000
1808	C585     5.6320    -5.6510     3.8550	C.2	1	noname	0.0000
1809	C586     5.0090    -6.6100     2.8320	C.3	1	noname	0.0000
1810	N153     4.9610    -6.0890     1.4610	N.3	1	noname	0.0000
1811	O172     5.1530    -5.5860     4.9890	O.2	1	noname	0.0000
1812	C587     5.6490    -8.0010     2.8270	C.3	1	noname	0.0000
1813	C588     7.0840    -8.0840     2.2970	C.2	1	noname	0.0000
1814	O173     7.6410    -7.1150     1.7330	O.2	1	noname	0.0000
1815	O174     7.6840    -9.1600     2.4960	O.3	1	noname	0.0000
1816	H896     5.7670    -6.2280     0.8690	H	1	noname	0.0000
1817	H897     3.9880    -6.7660     3.1810	H	1	noname	0.0000
1818	H898     5.6300    -8.3880     3.8460	H	1	noname	0.0000
1819	H899     5.0280    -8.6590     2.2190	H	1	noname	0.0000
1820	C589     6.9680    -2.4350     3.6370	C.2	1	noname	0.0000
1821	C590     7.2160    -3.7950     4.2700	C.3	1	noname	0.0000
1822	N154     6.6270    -4.8600     3.4520	N.3	1	noname	0.0000
1823	O175     7.2120    -2.2550     2.4470	O.2	1	noname	0.0000
1824	C591     8.7140    -4.0230     4.4920	C.3	1	noname	0.0000
1825	C592     9.0070    -5.2710     5.2930	C.2	1	noname	0.0000
1826	C593     9.0940    -5.2270     6.6970	C.2	1	noname	0.0000
1827	C594     9.1310    -6.4970     4.6300	C.2	1	noname	0.0000
1828	C595     9.3570    -6.4040     7.4260	C.2	1	noname	0.0000
1829	C596     9.3400    -7.6790     5.3600	C.2	1	noname	0.0000
1830	C597     9.4960    -7.6330     6.7500	C.2	1	noname	0.0000
1831	O176     9.7680    -8.7800     7.4230	O.3	1	noname	0.0000
1832	H900     6.9710    -4.9970     2.5120	H	1	noname	0.0000
1833	H901     6.7440    -3.7940     5.2520	H	1	noname	0.0000
1834	H902     9.2180    -4.0830     3.5280	H	1	noname	0.0000
1835	H903     9.1240    -3.1640     5.0230	H	1	noname	0.0000
1836	H904     8.9850    -4.2850     7.2140	H	1	noname	0.0000
1837	H905     8.9850    -6.5260     3.5610	H	1	noname	0.0000
1838	H906     9.4560    -6.3570     8.5010	H	1	noname	0.0000
1839	H907     9.3040    -8.6500     4.8880	H	1	noname	0.0000
1840	H908     9.8360    -8.6220     8.3670	H	1	noname	0.0000
1841	C598     6.9660     0.8890     4.7940	C.2	1	noname	0.0000
1842	C599     6.1330    -0.1380     4.0360	C.3	1	noname	0.0000
1843	N155     6.5200    -1.4830     4.4500	N.3	1	noname	0.0000
1844	O177     7.2500     0.7030     5.9800	O.2	1	noname	0.0000
1845	C600     4.6350     0.0630     4.3010	C.3	1	noname	0.0000
1846	C601     3.7250    -0.8160     3.4960	C.2	1	noname	0.0000
1847	C602     3.5640    -2.1520     3.6430	C.2	1	noname	0.0000
1848	C603     2.8430    -0.4340     2.4020	C.2	1	noname	0.0000
1849	C604     2.1830    -1.6040     1.9200	C.2	1	noname	0.0000
1850	C605     2.5180     0.7910     1.7850	C.2	1	noname	0.0000
1851	C606     1.2450    -1.5620     0.8810	C.2	1	noname	0.0000
1852	C607     1.5620     0.8470     0.7560	C.2	1	noname	0.0000
1853	C608     0.9300    -0.3240     0.3010	C.2	1	noname	0.0000
1854	N156     2.6910    -2.6280     2.6860	N.3	1	noname	0.0000
1855	H909     6.4220    -1.6900     5.4340	H	1	noname	0.0000
1856	H910     6.3100    -0.0030     2.9690	H	1	noname	0.0000
1857	H911     4.4320    -0.1030     5.3590	H	1	noname	0.0000
1858	H912     4.3880     1.1020     4.0810	H	1	noname	0.0000
1859	H913     4.0740    -2.7600     4.3750	H	1	noname	0.0000
1860	H914     2.5360    -3.6110     2.5130	H	1	noname	0.0000
1861	H915     2.9870     1.6970     2.1400	H	1	noname	0.0000
1862	H916     0.7570    -2.4680     0.5510	H	1	noname	0.0000
1863	H917     1.2850     1.8070     0.3460	H	1	noname	0.0000
1864	H918     0.1820    -0.2680    -0.4770	H	1	noname	0.0000
1865	C609     6.7860     3.9450     5.4770	C.2	1	noname	0.0000
1866	C610     7.8880     3.1370     4.7960	C.3	1	noname	0.0000
1867	N157     7.3540     1.9660     4.1180	N.3	1	noname	0.0000
1868	O178     5.5960     3.6340     5.3780	O.2	1	noname	0.0000
1869	H919     7.1300     2.0520     3.1370	H	1	noname	0.0000
1870	H920     8.5930     2.8270     5.5670	H	1	noname	0.0000
1871	H921     8.4390     3.7580     4.0900	H	1	noname	0.0000
1872	C611     5.5090     6.8110     6.0630	C.2	1	noname	0.0000
1873	C612     6.2310     5.8120     6.9740	C.3	1	noname	0.0000
1874	N158     7.1820     4.9690     6.2310	N.3	1	noname	0.0000
1875	O179     4.4660     7.3500     6.4340	O.2	1	noname	0.0000
1876	C613     6.9440     6.5330     8.1270	C.3	1	noname	0.0000
1877	C614     7.5350     5.5680     9.1660	C.3	1	noname	0.0000
1878	C615     6.4970     4.6220     9.7690	C.2	1	noname	0.0000
1879	O180     5.4520     5.0110    10.2710	O.2	1	noname	0.0000
1880	N159     6.7390     3.3300     9.7430	N.3	1	noname	0.0000
1881	H922     8.1430     5.2660     6.1390	H	1	noname	0.0000
1882	H923     5.4530     5.1770     7.3950	H	1	noname	0.0000
1883	H924     7.7430     7.1550     7.7230	H	1	noname	0.0000
1884	H925     6.2300     7.1850     8.6290	H	1	noname	0.0000
1885	H926     8.3330     4.9880     8.7040	H	1	noname	0.0000
1886	H927     7.9780     6.1480     9.9760	H	1	noname	0.0000
1887	H928     7.5620     2.9750     9.2760	H	1	noname	0.0000
1888	H929     6.0220     2.7190    10.1070	H	1	noname	0.0000
1889	C616     6.0040     9.3010     3.9120	C.2	1	noname	0.0000
1890	C617     5.4990     7.8630     3.8300	C.3	1	noname	0.0000
1891	N160     6.0410     7.0010     4.8570	N.3	1	noname	0.0000
1892	O181     6.4530     9.7850     4.9500	O.2	1	noname	0.0000
1893	H930     6.9040     6.5220     4.6420	H	1	noname	0.0000
1894	H931     4.4100     7.8660     3.8670	H	1	noname	0.0000
1895	H932     5.8150     7.4320     2.8800	H	1	noname	0.0000
1896	C618     5.0970    12.1990     2.0180	C.2	1	noname	0.0000
1897	C619     6.2380    11.4340     2.6760	C.3	1	noname	0.0000
1898	N161     5.9180    10.0060     2.7860	N.3	1	noname	0.0000
1899	O182     4.4800    11.7200     1.0650	O.2	1	noname	0.0000
1900	C620     7.5750    11.6690     1.9600	C.3	1	noname	0.0000
1901	C621     7.6070    11.1770     0.5110	C.3	1	noname	0.0000
1902	O183     7.8230    13.0570     1.9530	O.3	1	noname	0.0000
1903	H933     5.5940     9.5220     1.9610	H	1	noname	0.0000
1904	H934     6.3560    11.8380     3.6820	H	1	noname	0.0000
1905	H935     8.3650    11.1690     2.5210	H	1	noname	0.0000
1906	H936     8.7410    13.2340     1.7360	H	1	noname	0.0000
1907	H937     7.3220    10.1260     0.4670	H	1	noname	0.0000
1908	H938     6.9250    11.7630    -0.1060	H	1	noname	0.0000
1909	H939     8.6230    11.2740     0.1280	H	1	noname	0.0000
1910	C622     4.2210    15.0190     0.7890	C.2	1	noname	0.0000
1911	C623     3.7260    14.2350     2.0060	C.3	1	noname	0.0000
1912	N162     4.7900    13.3890     2.5360	N.3	1	noname	0.0000
1913	O184     5.1920    15.7730     0.8620	O.2	1	noname	0.0000
1914	C624     3.1880    15.1570     3.1140	C.3	1	noname	0.0000
1915	C625     2.0500    16.0900     2.6540	C.3	1	noname	0.0000
1916	C626     0.8000    15.3230     2.2140	C.3	1	noname	0.0000
1917	C627     1.6580    17.0220     3.8010	C.3	1	noname	0.0000
1918	H940     5.3910    13.7630     3.2560	H	1	noname	0.0000
1919	H941     2.9100    13.5890     1.6830	H	1	noname	0.0000
1920	H942     2.8300    14.5420     3.9400	H	1	noname	0.0000
1921	H943     4.0110    15.7700     3.4820	H	1	noname	0.0000
1922	H944     2.3960    16.7060     1.8240	H	1	noname	0.0000
1923	H945     0.4550    14.6700     3.0150	H	1	noname	0.0000
1924	H946     0.0120    16.0300     1.9560	H	1	noname	0.0000
1925	H947     1.0150    14.7310     1.3240	H	1	noname	0.0000
1926	H948     0.8800    17.7070     3.4650	H	1	noname	0.0000
1927	H949     1.2880    16.4420     4.6460	H	1	noname	0.0000
1928	H950     2.5260    17.6020     4.1150	H	1	noname	0.0000
1929	C628     2.3940    16.6170    -1.5790	C.2	1	noname	0.0000
1930	C629     3.6310    15.7390    -1.4990	C.3	1	noname	0.0000
1931	N163     3.4970    14.8910    -0.3160	N.3	1	noname	0.0000
1932	O185     1.2770    16.1030    -1.6170	O.2	1	noname	0.0000
1933	C630     3.7740    14.8740    -2.7560	C.3	1	noname	0.0000
1934	C631     3.7060    15.7030    -4.0460	C.3	1	noname	0.0000
1935	C632     5.0940    14.0950    -2.7330	C.3	1	noname	0.0000
1936	H951     2.7320    14.2310    -0.3120	H	1	noname	0.0000
1937	H952     4.5100    16.3790    -1.4160	H	1	noname	0.0000
1938	H953     2.9520    14.1580    -2.7690	H	1	noname	0.0000
1939	H954     3.9240    15.0700    -4.9070	H	1	noname	0.0000
1940	H955     2.6990    16.0970    -4.1790	H	1	noname	0.0000
1941	H956     4.4120    16.5320    -3.9960	H	1	noname	0.0000
1942	H957     5.0690    13.3280    -3.5060	H	1	noname	0.0000
1943	H958     5.9280    14.7770    -2.9060	H	1	noname	0.0000
1944	H959     5.2270    13.5890    -1.7760	H	1	noname	0.0000
1945	C633     1.7170    19.7070    -3.0590	C.2	1	noname	0.0000
1946	C634     1.5110    18.9030    -1.7900	C.3	1	noname	0.0000
1947	N164     2.5960    17.9300    -1.6500	N.3	1	noname	0.0000
1948	O186     2.7270    20.3920    -3.2120	O.2	1	noname	0.0000
1949	C635     1.4090    19.8210    -0.5650	C.3	1	noname	0.0000
1950	C636     0.2000    20.7560    -0.6440	C.3	1	noname	0.0000
1951	O187     1.2360    19.0520     0.6020	O.3	1	noname	0.0000
1952	H960     3.5440    18.2790    -1.6220	H	1	noname	0.0000
1953	H961     0.5590    18.3800    -1.8800	H	1	noname	0.0000
1954	H962     2.3200    20.4120    -0.4710	H	1	noname	0.0000
1955	H963     1.2090    19.6460     1.3560	H	1	noname	0.0000
1956	H964     0.2910    21.4180    -1.5050	H	1	noname	0.0000
1957	H965    -0.7130    20.1700    -0.7390	H	1	noname	0.0000
1958	H966     0.1450    21.3640     0.2590	H	1	noname	0.0000
1959	C637    -0.3440    21.5270    -5.0170	C.2	1	noname	0.0000
1960	C638     0.7300    20.4670    -5.1810	C.3	1	noname	0.0000
1961	N165     0.7430    19.6570    -3.9630	N.3	1	noname	0.0000
1962	O188    -1.5350    21.2340    -5.0760	O.2	1	noname	0.0000
1963	C639     0.5200    19.6130    -6.4390	C.3	1	noname	0.0000
1964	C640     0.7190    20.4850    -7.6880	C.3	1	noname	0.0000
1965	C641     1.5080    18.4420    -6.4960	C.3	1	noname	0.0000
1966	H967    -0.0570    19.0640    -3.7970	H	1	noname	0.0000
1967	H968     1.6950    20.9610    -5.2950	H	1	noname	0.0000
1968	H969    -0.4900    19.2030    -6.4390	H	1	noname	0.0000
1969	H970    -0.0530    21.2530    -7.7280	H	1	noname	0.0000
1970	H971     0.6460    19.8680    -8.5840	H	1	noname	0.0000
1971	H972     1.7030    20.9540    -7.6630	H	1	noname	0.0000
1972	H973     1.3500    17.7740    -5.6500	H	1	noname	0.0000
1973	H974     1.3290    17.8590    -7.3990	H	1	noname	0.0000
1974	H975     2.5340    18.8090    -6.4860	H	1	noname	0.0000
1975	C642    -0.3150    25.1690    -5.0260	C.2	1	noname	0.0000
1976	C643    -0.8640    23.8570    -4.4960	C.3	1	noname	0.0000
1977	N166     0.0690    22.7630    -4.7570	N.3	1	noname	0.0000
1978	O189     0.8240    25.5400    -4.7360	O.2	1	noname	0.0000
1979	C644    -1.1680    23.9450    -2.9970	C.3	1	noname	0.0000
1980	O190    -2.0660    25.0030    -2.7340	O.3	1	noname	0.0000
1981	H976     1.0610    22.9570    -4.7590	H	1	noname	0.0000
1982	H977    -1.8060    23.6580    -5.0070	H	1	noname	0.0000
1983	H978    -0.2460    24.1090    -2.4390	H	1	noname	0.0000
1984	H979    -1.6160    23.0050    -2.6720	H	1	noname	0.0000
1985	H980    -2.4360    24.8850    -1.8560	H	1	noname	0.0000
1986	C645    -1.2580    28.0270    -4.7270	C.2	1	noname	0.0000
1987	C646    -0.9370    27.3090    -6.0230	C.3	1	noname	0.0000
1988	N167    -1.1400    25.8860    -5.7900	N.3	1	noname	0.0000
1989	O191    -2.4190    28.0630    -4.3260	O.2	1	noname	0.0000
1990	C647    -1.7840    27.8130    -7.1950	C.3	1	noname	0.0000
1991	O192    -3.1460    27.4940    -6.9940	O.3	1	noname	0.0000
1992	H981    -2.0710    25.5370    -5.9670	H	1	noname	0.0000
1993	H982     0.1110    27.4980    -6.2570	H	1	noname	0.0000
1994	H983    -1.4380    27.3450    -8.1160	H	1	noname	0.0000
1995	H984    -1.6710    28.8940    -7.2860	H	1	noname	0.0000
1996	H985    -3.4380    27.9620    -6.2090	H	1	noname	0.0000
1997	C648    -1.4980    30.4070    -3.0760	C.2	1	noname	0.0000
1998	C649    -0.4850    29.2920    -2.7960	C.3	1	noname	0.0000
1999	N168    -0.2470    28.5320    -4.0190	N.3	1	noname	0.0000
2000	O193    -1.1790    31.3490    -3.7880	O.2	1	noname	0.0000
2001	H986     0.6850    28.5060    -4.4080	H	1	noname	0.0000
2002	H987    -0.8680    28.6290    -2.0200	H	1	noname	0.0000
2003	H988     0.4450    29.7460    -2.4530	H	1	noname	0.0000
2004	C650    -4.7330    30.9180    -3.9470	C.2	1	noname	0.0000
2005	C651    -3.8240    31.2080    -2.7420	C.3	1	noname	0.0000
2006	N169    -2.7190    30.2660    -2.5510	N.3	1	noname	0.0000
2007	O194    -4.3370    31.0860    -5.0910	O.2	1	noname	0.0000
2008	H989    -2.9240    29.3770    -2.1190	H	1	noname	0.0000
2009	H990    -4.4280    31.2270    -1.8350	H	1	noname	0.0000
2010	H991    -3.4170    32.2100    -2.8810	H	1	noname	0.0000
2011	C652    -7.2240    29.9570    -5.8280	C.2	1	noname	0.0000
2012	C653    -7.1590    30.7740    -4.5320	C.3	1	noname	0.0000
2013	N170    -5.9940    30.5680    -3.6570	N.3	1	noname	0.0000
2014	O195    -6.7340    30.3870    -6.8630	O.2	1	noname	0.0000
2015	H992    -6.1930    30.3760    -2.6860	H	1	noname	0.0000
2016	H993    -7.1800    31.8240    -4.8240	H	1	noname	0.0000
2017	H994    -8.0660    30.5800    -3.9590	H	1	noname	0.0000
2018	C654    -9.1200    26.8770    -6.8110	C.2	1	noname	0.0000
2019	C655    -8.2490    28.1010    -7.0490	C.3	1	noname	0.0000
2020	N171    -7.9430    28.8330    -5.8170	N.3	1	noname	0.0000
2021	O196    -8.6180    25.7760    -6.6130	O.2	1	noname	0.0000
2022	H995    -8.3020    28.4790    -4.9410	H	1	noname	0.0000
2023	H996    -8.7470    28.7650    -7.7560	H	1	noname	0.0000
2024	H997    -7.3170    27.7680    -7.5050	H	1	noname	0.0000
2025	C656   -11.3800    25.0770    -7.9170	C.2	1	noname	0.0000
2026	C657   -11.4580    26.0490    -6.7370	C.3	1	noname	0.0000
2027	N172   -10.4330    27.0880    -6.7980	N.3	1	noname	0.0000
2028	O197   -11.3220    25.5100    -9.0610	O.2	1	noname	0.0000
2029	C658   -12.8400    26.7150    -6.7900	C.3	1	noname	0.0000
2030	O198   -12.9800    27.6710    -5.7550	O.3	1	noname	0.0000
2031	H998   -10.7610    28.0350    -6.9190	H	1	noname	0.0000
2032	H999   -11.3590    25.5010    -5.8000	H	1	noname	0.0000
2033	H1000   -13.6110    25.9520    -6.6840	H	1	noname	0.0000
2034	H1001   -12.9670    27.2100    -7.7530	H	1	noname	0.0000
2035	H1002   -13.8510    28.0690    -5.8160	H	1	noname	0.0000
2036	C659   -11.6590    22.3580    -9.7470	C.2	1	noname	0.0000
2037	C660   -12.3210    22.8660    -8.4650	C.3	1	noname	0.0000
2038	N173   -11.5480    23.7860    -7.6260	N.3	1	noname	0.0000
2039	O199   -11.6550    23.0180   -10.7780	O.2	1	noname	0.0000
2040	H1003   -11.4150    23.5200    -6.6610	H	1	noname	0.0000
2041	H1004   -12.6140    22.0090    -7.8590	H	1	noname	0.0000
2042	H1005   -13.2370    23.3720    -8.7690	H	1	noname	0.0000
2043	C661   -11.1850    18.8370   -10.6290	C.2	1	noname	0.0000
2044	C662   -10.9230    20.3100   -10.8990	C.3	1	noname	0.0000
2045	N174   -11.2480    21.0940    -9.7130	N.3	1	noname	0.0000
2046	O200   -10.2610    18.0590   -10.4550	O.2	1	noname	0.0000
2047	H1006   -11.1940    20.6280    -8.8190	H	1	noname	0.0000
2048	H1007   -11.5250    20.6310   -11.7490	H	1	noname	0.0000
2049	H1008    -9.8690    20.4400   -11.1460	H	1	noname	0.0000
2050	C663   -12.6130    16.3750   -11.7880	C.2	1	noname	0.0000
2051	C664   -12.8610    17.0550   -10.4440	C.3	1	noname	0.0000
2052	N175   -12.4580    18.4570   -10.5110	N.3	1	noname	0.0000
2053	O201   -13.4850    16.3790   -12.6500	O.2	1	noname	0.0000
2054	H1009   -13.1760    19.1510   -10.6670	H	1	noname	0.0000
2055	H1010   -13.9230    16.9850   -10.2110	H	1	noname	0.0000
2056	H1011   -12.2930    16.5410    -9.6690	H	1	noname	0.0000
2057	C665   -11.2390    13.4870   -12.7560	C.2	1	noname	0.0000
2058	C666   -11.0770    14.9620   -13.1050	C.3	1	noname	0.0000
2059	N176   -11.4210    15.8130   -11.9710	N.3	1	noname	0.0000
2060	O202   -10.2670    12.8160   -12.4270	O.2	1	noname	0.0000
2061	H1012   -10.7020    16.0010   -11.2870	H	1	noname	0.0000
2062	H1013   -11.6990    15.1980   -13.9680	H	1	noname	0.0000
2063	H1014   -10.0360    15.1370   -13.3770	H	1	noname	0.0000
2064	C667   -12.4170    11.0740   -14.3630	C.2	1	noname	0.0000
2065	C668   -12.7430    11.5470   -12.9440	C.3	1	noname	0.0000
2066	N177   -12.4690    12.9830   -12.8270	N.3	1	noname	0.0000
2067	O203   -12.7240    11.7810   -15.3210	O.2	1	noname	0.0000
2068	C669   -14.2260    11.2620   -12.6770	C.3	1	noname	0.0000
2069	O204   -14.5760    11.5890   -11.3460	O.3	1	noname	0.0000
2070	H1015   -13.2170    13.6200   -13.0590	H	1	noname	0.0000
2071	H1016   -12.1370    10.9970   -12.2250	H	1	noname	0.0000
2072	H1017   -14.4250    10.2040   -12.8450	H	1	noname	0.0000
2073	H1018   -14.8350    11.8470   -13.3670	H	1	noname	0.0000
2074	H1019   -15.5280    11.5070   -11.2530	H	1	noname	0.0000
2075	C670   -10.6900     8.5840   -16.3610	C.2	1	noname	0.0000
2076	C671   -11.9950     9.1210   -15.7820	C.3	1	noname	0.0000
2077	N178   -11.8980     9.8520   -14.5110	N.3	1	noname	0.0000
2078	O205   -10.4240     8.7770   -17.5410	O.2	1	noname	0.0000
2079	H1020   -11.6210     9.3470   -13.6810	H	1	noname	0.0000
2080	H1021   -12.6560     8.2680   -15.6310	H	1	noname	0.0000
2081	H1022   -12.4520     9.7470   -16.5490	H	1	noname	0.0000
2082	C672    -9.7600     5.5750   -16.3840	C.2	1	noname	0.0000
2083	C673    -8.9850     6.8660   -16.1330	C.3	1	noname	0.0000
2084	N179    -9.8960     7.8620   -15.5710	N.3	1	noname	0.0000
2085	O206    -9.7800     4.7060   -15.5220	O.2	1	noname	0.0000
2086	H1023   -10.1350     7.7630   -14.5950	H	1	noname	0.0000
2087	H1024    -8.1840     6.6570   -15.4230	H	1	noname	0.0000
2088	H1025    -8.5420     7.2170   -17.0650	H	1	noname	0.0000
2089	C674   -10.0220     3.2330   -18.4840	C.2	1	noname	0.0000
2090	C675   -11.0720     4.2300   -17.9940	C.3	1	noname	0.0000
2091	N180   -10.4460     5.4720   -17.5250	N.3	1	noname	0.0000
2092	O207   -10.0010     2.8940   -19.6630	O.2	1	noname	0.0000
2093	H1026   -10.4150     6.2550   -18.1620	H	1	noname	0.0000
2094	H1027   -11.7560     4.4480   -18.8150	H	1	noname	0.0000
2095	H1028   -11.6330     3.7690   -17.1810	H	1	noname	0.0000
2096	C676    -8.8830     0.4010   -17.6580	C.2	1	noname	0.0000
2097	C677    -8.1750     1.7400   -17.8440	C.3	1	noname	0.0000
2098	N181    -9.1100     2.8310   -17.5990	N.3	1	noname	0.0000
2099	O208    -9.7360     0.2570   -16.7830	O.2	1	noname	0.0000
2100	H1029    -9.2000     3.1600   -16.6490	H	1	noname	0.0000
2101	H1030    -7.3410     1.7960   -17.1440	H	1	noname	0.0000
2102	H1031    -7.7780     1.8080   -18.8560	H	1	noname	0.0000
2103	C678    -8.2780    -2.6940   -17.1770	C.2	1	noname	0.0000
2104	C679    -8.9650    -1.9870   -18.3530	C.3	1	noname	0.0000
2105	N182    -8.5310    -0.5890   -18.4750	N.3	1	noname	0.0000
2106	O209    -7.7580    -3.7980   -17.3260	O.2	1	noname	0.0000
2107	C680    -8.6960    -2.7060   -19.6780	C.3	1	noname	0.0000
2108	O210    -7.3250    -2.5940   -20.0090	O.3	1	noname	0.0000
2109	H1032    -7.8120    -0.4070   -19.1610	H	1	noname	0.0000
2110	H1033   -10.0380    -2.0070   -18.1590	H	1	noname	0.0000
2111	H1034    -9.2920    -2.2410   -20.4640	H	1	noname	0.0000
2112	H1035    -8.9780    -3.7560   -19.6000	H	1	noname	0.0000
2113	H1036    -6.8440    -3.0880   -19.3410	H	1	noname	0.0000
2114	C681    -8.5480    -3.3340   -13.9960	C.2	1	noname	0.0000
2115	C682    -7.5600    -2.5120   -14.8310	C.3	1	noname	0.0000
2116	N183    -8.2080    -2.0190   -16.0350	N.3	1	noname	0.0000
2117	O211    -9.7610    -3.0790   -14.0140	O.2	1	noname	0.0000
2118	C683    -6.9550    -1.3300   -14.0580	C.3	1	noname	0.0000
2119	C684    -5.8410    -1.7580   -13.1040	C.2	1	noname	0.0000
2120	O212    -5.5620    -2.9770   -13.0470	O.2	1	noname	0.0000
2121	O213    -5.2800    -0.8460   -12.4610	O.3	1	noname	0.0000
2122	H1037    -8.7100    -1.1450   -15.9680	H	1	noname	0.0000
2123	H1038    -6.7440    -3.1690   -15.1320	H	1	noname	0.0000
2124	H1039    -7.7400    -0.8160   -13.5040	H	1	noname	0.0000
2125	H1040    -6.5270    -0.6260   -14.7710	H	1	noname	0.0000
2126	C685    -9.4890    -4.3810   -11.3160	C.2	1	noname	0.0000
2127	C686    -8.8790    -5.2110   -12.4450	C.3	1	noname	0.0000
2128	N184    -8.0470    -4.3290   -13.2640	N.3	1	noname	0.0000
2129	O214    -8.8360    -3.9830   -10.3640	O.2	1	noname	0.0000
2130	C687    -8.0820    -6.4290   -11.9310	C.3	1	noname	0.0000
2131	C688    -7.6570    -7.3170   -13.1250	C.3	1	noname	0.0000
2132	C689    -8.9340    -7.2520   -10.9390	C.3	1	noname	0.0000
2133	C690    -6.5650    -8.3300   -12.7750	C.3	1	noname	0.0000
2134	H1041    -7.0440    -4.3490   -13.1510	H	1	noname	0.0000
2135	H1042    -9.6910    -5.5860   -13.0680	H	1	noname	0.0000
2136	H1043    -7.1910    -6.0680   -11.4160	H	1	noname	0.0000
2137	H1044    -8.5270    -7.8470   -13.5130	H	1	noname	0.0000
2138	H1045    -7.2610    -6.6960   -13.9280	H	1	noname	0.0000
2139	H1046    -8.3580    -8.1010   -10.5700	H	1	noname	0.0000
2140	H1047    -9.8390    -7.6180   -11.4250	H	1	noname	0.0000
2141	H1048    -9.1940    -6.6500   -10.0680	H	1	noname	0.0000
2142	H1049    -6.3250    -8.9260   -13.6560	H	1	noname	0.0000
2143	H1050    -6.9040    -8.9950   -11.9810	H	1	noname	0.0000
2144	H1051    -5.6670    -7.8070   -12.4470	H	1	noname	0.0000
2145	C691   -11.7060    -4.2730    -9.1240	C.2	1	noname	0.0000
2146	C692   -11.4840    -3.3830   -10.3480	C.3	1	noname	0.0000
2147	N185   -10.7890    -4.1200   -11.3980	N.3	1	noname	0.0000
2148	O215   -12.1890    -5.4010    -9.2600	O.2	1	noname	0.0000
2149	C693   -12.8010    -2.8010   -10.8760	C.3	1	noname	0.0000
2150	C694   -12.6060    -1.8820   -12.0920	C.3	1	noname	0.0000
2151	C695   -11.6530    -0.7310   -11.7950	C.2	1	noname	0.0000
2152	O216   -11.9340     0.1240   -10.9710	O.2	1	noname	0.0000
2153	N186   -10.4980    -0.6940   -12.4190	N.3	1	noname	0.0000
2154	H1052   -11.2610    -4.3290   -12.2660	H	1	noname	0.0000
2155	H1053   -10.8510    -2.5510   -10.0380	H	1	noname	0.0000
2156	H1054   -13.4740    -3.6120   -11.1530	H	1	noname	0.0000
2157	H1055   -13.2740    -2.2290   -10.0780	H	1	noname	0.0000
2158	H1056   -12.2360    -2.4590   -12.9400	H	1	noname	0.0000
2159	H1057   -13.5710    -1.4620   -12.3770	H	1	noname	0.0000
2160	H1058    -9.8480     0.0360   -12.1640	H	1	noname	0.0000
2161	H1059   -10.2340    -1.4350   -13.0530	H	1	noname	0.0000
2162	C696   -12.6970    -3.6860    -5.8690	C.2	1	noname	0.0000
2163	C697   -11.5930    -4.3970    -6.6500	C.3	1	noname	0.0000
2164	N187   -11.4040    -3.7370    -7.9420	N.3	1	noname	0.0000
2165	O217   -12.6210    -2.4860    -5.6200	O.2	1	noname	0.0000
2166	C698   -10.2770    -4.4000    -5.8580	C.3	1	noname	0.0000
2167	C699    -9.1360    -5.1060    -6.5970	C.3	1	noname	0.0000
2168	S6    -9.4400    -6.8320    -7.0580	S.3	1	noname	0.0000
2169	C700    -9.3150    -7.6140    -5.4400	C.3	1	noname	0.0000
2170	H1060   -11.0040    -2.8090    -7.9300	H	1	noname	0.0000
2171	H1061   -11.8930    -5.4320    -6.8090	H	1	noname	0.0000
2172	H1062    -9.9740    -3.3680    -5.6810	H	1	noname	0.0000
2173	H1063   -10.4360    -4.8830    -4.8940	H	1	noname	0.0000
2174	H1064    -8.2390    -5.0600    -5.9800	H	1	noname	0.0000
2175	H1065    -8.9360    -4.5520    -7.5150	H	1	noname	0.0000
2176	H1066   -10.0870    -7.1800    -4.8050	H	1	noname	0.0000
2177	H1067    -8.3300    -7.4250    -5.0130	H	1	noname	0.0000
2178	H1068    -9.4760    -8.6880    -5.5350	H	1	noname	0.0000
2179	C701   -14.9710    -4.5320    -3.3600	C.2	1	noname	0.0000
2180	C702   -14.8860    -3.8870    -4.7350	C.3	1	noname	0.0000
2181	N188   -13.7330    -4.4210    -5.4730	N.3	1	noname	0.0000
2182	O218   -15.2490    -5.7250    -3.2560	O.2	1	noname	0.0000
2183	C703   -16.1880    -4.1330    -5.5090	C.3	1	noname	0.0000
2184	C704   -17.3930    -3.4680    -4.8430	C.3	1	noname	0.0000
2185	O219   -16.0910    -3.5950    -6.8050	O.3	1	noname	0.0000
2186	H1069   -13.7420    -5.3980    -5.7300	H	1	noname	0.0000
2187	H1070   -14.7800    -2.8100    -4.6040	H	1	noname	0.0000
2188	H1071   -16.3660    -5.2050    -5.5920	H	1	noname	0.0000
2189	H1072   -15.2250    -3.8280    -7.1470	H	1	noname	0.0000
2190	H1073   -18.2750    -3.6170    -5.4650	H	1	noname	0.0000
2191	H1074   -17.2110    -2.3990    -4.7330	H	1	noname	0.0000
2192	H1075   -17.5760    -3.9080    -3.8630	H	1	noname	0.0000
2193	C705   -16.3770    -3.9660    -0.4230	C.2	1	noname	0.0000
2194	C706   -14.9510    -4.2060    -0.9210	C.3	1	noname	0.0000
2195	N189   -14.7630    -3.7530    -2.3000	N.3	1	noname	0.0000
2196	O220   -17.0540    -3.0370    -0.8570	O.2	1	noname	0.0000
2197	C707   -13.9180    -3.5700     0.0190	C.3	1	noname	0.0000
2198	C708   -12.5380    -4.1820    -0.2180	C.3	1	noname	0.0000
2199	C709   -11.4720    -3.5810     0.6840	C.2	1	noname	0.0000
2200	O221   -10.5280    -2.9540     0.2340	O.2	1	noname	0.0000
2201	N190   -11.5800    -3.7340     1.9840	N.3	1	noname	0.0000
2202	H1076   -14.5050    -2.7890    -2.4540	H	1	noname	0.0000
2203	H1077   -14.7880    -5.2840    -0.9010	H	1	noname	0.0000
2204	H1078   -13.8790    -2.4910    -0.1270	H	1	noname	0.0000
2205	H1079   -14.2110    -3.7680     1.0510	H	1	noname	0.0000
2206	H1080   -12.5890    -5.2540    -0.0260	H	1	noname	0.0000
2207	H1081   -12.2550    -4.0180    -1.2580	H	1	noname	0.0000
2208	H1082   -10.9170    -3.2360     2.5610	H	1	noname	0.0000
2209	H1083   -12.4460    -4.0650     2.3860	H	1	noname	0.0000
2210	C710   -18.0560    -5.1050     2.6430	C.2	1	noname	0.0000
2211	C711   -18.0960    -4.5250     1.2250	C.3	1	noname	0.0000
2212	N191   -16.8430    -4.7820     0.5170	N.3	1	noname	0.0000
2213	O222   -17.6200    -6.2520     2.8040	O.2	1	noname	0.0000
2214	C712   -19.2820    -5.0920     0.4400	C.3	1	noname	0.0000
2215	O223   -20.4920    -4.7750     1.0980	O.3	1	noname	0.0000
2216	H1084   -16.2740    -5.5650     0.8040	H	1	noname	0.0000
2217	H1085   -18.2300    -3.4450     1.2710	H	1	noname	0.0000
2218	H1086   -19.1890    -6.1740     0.3530	H	1	noname	0.0000
2219	H1087   -19.2930    -4.6590    -0.5600	H	1	noname	0.0000
2220	H1088   -21.2100    -5.2240     0.6440	H	1	noname	0.0000
2221	C713   -17.9440    -1.9250     3.4480	C.2	1	noname	0.0000
2222	C714   -19.0530    -2.9880     3.5820	C.3	1	noname	0.0000
2223	N192   -18.5160    -4.3560     3.6640	N.3	1	noname	0.0000
2224	O224   -16.7690    -2.2230     3.6410	O.2	1	noname	0.0000
2225	C715   -19.8630    -2.8260     4.8680	C.3	1	noname	0.0000
2226	C716   -19.0740    -3.6670     5.8690	C.3	1	noname	0.0000
2227	C717   -18.5670    -4.8400     5.0360	C.3	1	noname	0.0000
2228	H1089   -19.7350    -2.8900     2.7380	H	1	noname	0.0000
2229	H1090   -19.9450    -1.7850     5.1830	H	1	noname	0.0000
2230	H1091   -20.8530    -3.2590     4.7310	H	1	noname	0.0000
2231	H1092   -19.7030    -4.0070     6.6920	H	1	noname	0.0000
2232	H1093   -18.2250    -3.0880     6.2320	H	1	noname	0.0000
2233	H1094   -17.5820    -5.1540     5.3800	H	1	noname	0.0000
2234	H1095   -19.2690    -5.6710     5.1010	H	1	noname	0.0000
2235	C718   -16.9670     0.8990     4.5650	C.2	1	noname	0.0000
2236	C719   -17.3270     0.4510     3.1450	C.3	1	noname	0.0000
2237	N193   -18.2880    -0.6730     3.1290	N.3	1	noname	0.0000
2238	O225   -15.8590     1.3620     4.8260	O.2	1	noname	0.0000
2239	C720   -17.9110     1.6430     2.3820	C.3	1	noname	0.0000
2240	O226   -19.1870     1.9860     2.8990	O.3	1	noname	0.0000
2241	H1096   -19.2560    -0.4500     2.9500	H	1	noname	0.0000
2242	H1097   -16.4020     0.1500     2.6540	H	1	noname	0.0000
2243	H1098   -17.2370     2.4960     2.4520	H	1	noname	0.0000
2244	H1099   -18.0190     1.3680     1.3320	H	1	noname	0.0000
2245	H1100   -19.0840     2.5860     3.6410	H	1	noname	0.0000
2246	C721   -18.5700     0.0600     7.7410	C.2	1	noname	0.0000
2247	C722   -17.6920     0.9940     6.9250	C.3	1	noname	0.0000
2248	N194   -17.8990     0.7490     5.5020	N.3	1	noname	0.0000
2249	O227   -19.6820    -0.2640     7.3210	O.2	1	noname	0.0000
2250	C723   -17.9860     2.4540     7.2860	C.3	1	noname	0.0000
2251	O228   -19.3030     2.8220     6.9160	O.3	1	noname	0.0000
2252	H1101   -18.8110     0.4080     5.2330	H	1	noname	0.0000
2253	H1102   -16.6480     0.7820     7.1590	H	1	noname	0.0000
2254	H1103   -17.2790     3.0950     6.7580	H	1	noname	0.0000
2255	H1104   -17.8480     2.6020     8.3580	H	1	noname	0.0000
2256	H1105   -19.9210     2.4140     7.5280	H	1	noname	0.0000
2257	C724   -18.4760    -0.8370    11.2900	C.2	1	noname	0.0000
2258	C725   -18.8910    -1.1340     9.8510	C.3	1	noname	0.0000
2259	N195   -18.0930    -0.3640     8.9060	N.3	1	noname	0.0000
2260	O229   -17.3040    -0.5760    11.5630	O.2	1	noname	0.0000
2261	C726   -18.8300    -2.6310     9.4910	C.3	1	noname	0.0000
2262	C727   -17.5740    -3.3920     9.9680	C.3	1	noname	0.0000
2263	C728   -17.9570    -4.2830    11.1550	C.3	1	noname	0.0000
2264	C729   -16.9790    -4.2610     8.8590	C.3	1	noname	0.0000
2265	H1106   -17.1730    -0.0690     9.2020	H	1	noname	0.0000
2266	H1107   -19.9290    -0.8160     9.7480	H	1	noname	0.0000
2267	H1108   -18.9170    -2.7140     8.4070	H	1	noname	0.0000
2268	H1109   -19.7210    -3.1100     9.8970	H	1	noname	0.0000
2269	H1110   -16.7960    -2.6880    10.2630	H	1	noname	0.0000
2270	H1111   -17.1020    -4.8680    11.4940	H	1	noname	0.0000
2271	H1112   -18.7520    -4.9740    10.8720	H	1	noname	0.0000
2272	H1113   -18.2970    -3.6660    11.9860	H	1	noname	0.0000
2273	H1114   -17.6960    -5.0210     8.5470	H	1	noname	0.0000
2274	H1115   -16.0680    -4.7410     9.2170	H	1	noname	0.0000
2275	H1116   -16.7200    -3.6300     8.0090	H	1	noname	0.0000
2276	C730   -19.6450    -2.0930    14.3200	C.2	1	noname	0.0000
2277	C731   -19.2040    -0.8040    13.6370	C.3	1	noname	0.0000
2278	N196   -19.4380    -0.9230    12.2010	N.3	1	noname	0.0000
2279	O230   -20.7610    -2.5570    14.0860	O.2	1	noname	0.0000
2280	C732   -19.9230     0.4080    14.2380	C.3	1	noname	0.0000
2281	O231   -19.7480     1.5740    13.4540	O.3	1	noname	0.0000
2282	H1117   -20.3780    -1.1470    11.9060	H	1	noname	0.0000
2283	H1118   -18.1360    -0.6640    13.8060	H	1	noname	0.0000
2284	H1119   -19.5540     0.5850    15.2490	H	1	noname	0.0000
2285	H1120   -20.9900     0.1920    14.2910	H	1	noname	0.0000
2286	H1121   -18.9010     1.9920    13.6250	H	1	noname	0.0000
2287	C733   -18.5060    -3.8710    17.2870	C.2	1	noname	0.0000
2288	C734   -19.0330    -3.9310    15.8480	C.3	1	noname	0.0000
2289	N197   -18.7840    -2.6670    15.1540	N.3	1	noname	0.0000
2290	O232   -17.6160    -3.0790    17.5980	O.2	1	noname	0.0000
2291	C735   -18.4060    -5.0640    15.0300	C.3	1	noname	0.0000
2292	H1122   -17.8870    -2.2270    15.3050	H	1	noname	0.0000
2293	H1123   -20.1050    -4.1180    15.9080	H	1	noname	0.0000
2294	H1124   -18.9130    -5.1470    14.0690	H	1	noname	0.0000
2295	H1125   -18.5140    -6.0070    15.5650	H	1	noname	0.0000
2296	H1126   -17.3490    -4.8560    14.8600	H	1	noname	0.0000
2297	C736   -17.4840    -5.6670    19.7720	C.2	1	noname	0.0000
2298	C737   -18.6780    -4.7240    19.5870	C.3	1	noname	0.0000
2299	N198   -19.0840    -4.6600    18.1840	N.3	1	noname	0.0000
2300	O233   -17.2260    -6.5540    18.9600	O.2	1	noname	0.0000
2301	C738   -19.8800    -5.1220    20.4500	C.3	1	noname	0.0000
2302	O234   -20.8030    -4.0380    20.4920	O.3	1	noname	0.0000
2303	H1127   -19.7330    -5.3660    17.8680	H	1	noname	0.0000
2304	H1128   -18.3560    -3.7330    19.9080	H	1	noname	0.0000
2305	H1129   -19.5470    -5.3480    21.4630	H	1	noname	0.0000
2306	H1130   -20.3580    -6.0080    20.0330	H	1	noname	0.0000
2307	H1131   -20.3880    -3.3210    20.9760	H	1	noname	0.0000
2308	C739   -16.1410    -7.7910    21.3790	C.2	1	noname	0.0000
2309	C740   -15.6040    -6.3680    21.1970	C.3	1	noname	0.0000
2310	N199   -16.7150    -5.4680    20.8450	N.3	1	noname	0.0000
2311	O235   -17.1600    -7.9930    22.0340	O.2	1	noname	0.0000
2312	C741   -14.8770    -5.8830    22.4650	C.3	1	noname	0.0000
2313	C742   -13.7640    -6.8380    22.9170	C.3	1	noname	0.0000
2314	C743   -14.2360    -4.5090    22.2210	C.3	1	noname	0.0000
2315	H1132   -16.9710    -4.7460    21.5040	H	1	noname	0.0000
2316	H1133   -14.8890    -6.3780    20.3750	H	1	noname	0.0000
2317	H1134   -15.5990    -5.7880    23.2760	H	1	noname	0.0000
2318	H1135   -14.1830    -7.8040    23.2000	H	1	noname	0.0000
2319	H1136   -13.2580    -6.4270    23.7900	H	1	noname	0.0000
2320	H1137   -13.0350    -6.9770    22.1200	H	1	noname	0.0000
2321	H1138   -13.5080    -4.5720    21.4120	H	1	noname	0.0000
2322	H1139   -13.7350    -4.1730    23.1300	H	1	noname	0.0000
2323	H1140   -14.9960    -3.7720    21.9630	H	1	noname	0.0000
2324	C744   -16.7580   -10.5370    19.5530	C.2	1	noname	0.0000
2325	C745   -15.8830   -10.1690    20.7540	C.3	1	noname	0.0000
2326	N200   -15.4530    -8.7700    20.7920	N.3	1	noname	0.0000
2327	O236   -16.8850   -11.7250    19.2620	O.2	1	noname	0.0000
2328	H1141   -14.6000    -8.5230    20.3120	H	1	noname	0.0000
2329	H1142   -15.0020   -10.8100    20.7390	H	1	noname	0.0000
2330	H1143   -16.4510   -10.3960    21.6560	H	1	noname	0.0000
2331	C746   -17.2200   -10.5000    16.5210	C.2	1	noname	0.0000
2332	C747   -18.0790    -9.8510    17.6100	C.3	1	noname	0.0000
2333	N201   -17.2960    -9.5630    18.8110	N.3	1	noname	0.0000
2334	O237   -16.0200   -10.2350    16.3710	O.2	1	noname	0.0000
2335	C748   -18.7600    -8.5940    17.0340	C.3	1	noname	0.0000
2336	C749   -19.9730    -8.0900    17.8240	C.2	1	noname	0.0000
2337	O238   -20.4610    -8.8240    18.7100	O.2	1	noname	0.0000
2338	O239   -20.4540    -6.9840    17.4780	O.3	1	noname	0.0000
2339	H1144   -17.2050    -8.5990    19.0980	H	1	noname	0.0000
2340	H1145   -18.8610   -10.5590    17.8820	H	1	noname	0.0000
2341	H1146   -19.1160    -8.8280    16.0310	H	1	noname	0.0000
2342	H1147   -18.0180    -7.8030    16.9290	H	1	noname	0.0000
2343	C750   -17.5520   -10.7590    13.3430	C.2	1	noname	0.0000
2344	C751   -17.3090   -11.7930    14.4360	C.3	1	noname	0.0000
2345	N202   -17.8760   -11.3140    15.6930	N.3	1	noname	0.0000
2346	O240   -18.6960   -10.4660    13.0070	O.2	1	noname	0.0000
2347	C752   -17.8930   -13.1630    14.0910	C.3	1	noname	0.0000
2348	C753   -17.3200   -13.6940    12.7710	C.3	1	noname	0.0000
2349	C754   -17.8790   -15.0880    12.4990	C.3	1	noname	0.0000
2350	C755   -17.1710   -16.9250    10.9690	C.2	1	noname	0.0000
2351	N203   -17.3290   -15.6450    11.2510	N.3	1	noname	0.0000
2352	N204   -17.5370   -17.8640    11.7990	N.3	1	noname	0.0000
2353	N205   -16.6370   -17.2870     9.8370	N.2	1	noname	0.0000
2354	H1148   -18.8610   -11.4570    15.8690	H	1	noname	0.0000
2355	H1149   -16.2340   -11.9060    14.5760	H	1	noname	0.0000
2356	H1150   -18.9780   -13.0860    14.0090	H	1	noname	0.0000
2357	H1151   -17.6510   -13.8570    14.8960	H	1	noname	0.0000
2358	H1152   -17.5970   -13.0360    11.9480	H	1	noname	0.0000
2359	H1153   -16.2330   -13.7430    12.8400	H	1	noname	0.0000
2360	H1154   -18.9640   -15.0250    12.4220	H	1	noname	0.0000
2361	H1155   -17.6210   -15.7250    13.3460	H	1	noname	0.0000
2362	H1156   -17.0600   -14.9760    10.5440	H	1	noname	0.0000
2363	H1157   -17.9630   -17.5890    12.6730	H	1	noname	0.0000
2364	H1158   -17.4080   -18.8390    11.5700	H	1	noname	0.0000
2365	H1159   -16.3410   -16.5820     9.1770	H	1	noname	0.0000
2366	H1160   -16.5080   -18.2650     9.6160	H	1	noname	0.0000
2367	C756   -16.1200   -10.0530    10.3210	C.2	1	noname	0.0000
2368	C757   -16.5290    -9.3400    11.6010	C.3	1	noname	0.0000
2369	N206   -16.4770   -10.2800    12.7270	N.3	1	noname	0.0000
2370	O241   -15.1200   -10.7690    10.2990	O.2	1	noname	0.0000
2371	C758   -15.6530    -8.1050    11.8740	C.3	1	noname	0.0000
2372	C759   -15.5900    -7.1670    10.6630	C.3	1	noname	0.0000
2373	C760   -16.1980    -7.3200    13.0720	C.3	1	noname	0.0000
2374	H1161   -15.5770   -10.6120    13.0410	H	1	noname	0.0000
2375	H1162   -17.5520    -8.9860    11.4730	H	1	noname	0.0000
2376	H1163   -14.6370    -8.4270    12.1020	H	1	noname	0.0000
2377	H1164   -15.0610    -7.6470     9.8390	H	1	noname	0.0000
2378	H1165   -15.0360    -6.2670    10.9290	H	1	noname	0.0000
2379	H1166   -16.5970    -6.8980    10.3450	H	1	noname	0.0000
2380	H1167   -16.1730    -7.9330    13.9720	H	1	noname	0.0000
2381	H1168   -17.2260    -7.0080    12.8860	H	1	noname	0.0000
2382	H1169   -15.5790    -6.4390    13.2470	H	1	noname	0.0000
2383	C761   -16.5430    -9.1580     6.9070	C.2	1	noname	0.0000
2384	C762   -16.5090   -10.3090     7.9040	C.3	1	noname	0.0000
2385	N207   -16.8630    -9.8240     9.2400	N.3	1	noname	0.0000
2386	O242   -17.5190    -8.4160     6.8260	O.2	1	noname	0.0000
2387	C763   -17.4020   -11.4790     7.4640	C.3	1	noname	0.0000
2388	C764   -17.0680   -11.9810     6.0580	C.3	1	noname	0.0000
2389	O243   -17.2010   -12.5840     8.3250	O.3	1	noname	0.0000
2390	H1170   -17.6690    -9.2200     9.3190	H	1	noname	0.0000
2391	H1171   -15.4870   -10.6850     7.9300	H	1	noname	0.0000
2392	H1172   -18.4480   -11.1770     7.5010	H	1	noname	0.0000
2393	H1173   -16.2980   -12.8800     8.1900	H	1	noname	0.0000
2394	H1174   -17.3350   -11.2270     5.3180	H	1	noname	0.0000
2395	H1175   -17.6420   -12.8840     5.8470	H	1	noname	0.0000
2396	H1176   -16.0040   -12.2030     5.9790	H	1	noname	0.0000
2397	C765   -15.1450    -8.8740     3.7730	C.2	1	noname	0.0000
2398	C766   -15.3000    -8.0700     5.0550	C.3	1	noname	0.0000
2399	N208   -15.4640    -9.0310     6.1410	N.3	1	noname	0.0000
2400	O244   -14.3790    -9.8330     3.7180	O.2	1	noname	0.0000
2401	C767   -14.0950    -7.1370     5.3070	C.3	1	noname	0.0000
2402	C768   -14.2340    -6.4260     6.6750	C.3	1	noname	0.0000
2403	C769   -13.9790    -6.1190     4.1560	C.3	1	noname	0.0000
2404	C770   -13.0020    -5.6270     7.1090	C.3	1	noname	0.0000
2405	H1177   -14.7100    -9.6890     6.2790	H	1	noname	0.0000
2406	H1178   -16.1960    -7.4540     4.9720	H	1	noname	0.0000
2407	H1179   -13.1870    -7.7410     5.3250	H	1	noname	0.0000
2408	H1180   -15.1030    -5.7680     6.6540	H	1	noname	0.0000
2409	H1181   -14.4010    -7.1640     7.4590	H	1	noname	0.0000
2410	H1182   -13.1100    -5.4770     4.3040	H	1	noname	0.0000
2411	H1183   -13.8510    -6.6240     3.1990	H	1	noname	0.0000
2412	H1184   -14.8770    -5.5030     4.1130	H	1	noname	0.0000
2413	H1185   -13.1830    -5.1920     8.0910	H	1	noname	0.0000
2414	H1186   -12.7980    -4.8200     6.4050	H	1	noname	0.0000
2415	H1187   -12.1350    -6.2850     7.1730	H	1	noname	0.0000
2416	C771   -15.0390    -8.2730     0.4560	C.2	1	noname	0.0000
2417	C772   -15.8230    -9.1410     1.4270	C.3	1	noname	0.0000
2418	N209   -15.8770    -8.4950     2.7390	N.3	1	noname	0.0000
2419	O245   -15.0200    -7.0490     0.5870	O.2	1	noname	0.0000
2420	C773   -17.2240    -9.4610     0.8930	C.3	1	noname	0.0000
2421	C774   -18.0120   -10.3660     1.8410	C.3	1	noname	0.0000
2422	O246   -17.9770    -8.2850     0.7300	O.3	1	noname	0.0000
2423	H1188   -16.4350    -7.6590     2.8370	H	1	noname	0.0000
2424	H1189   -15.2960   -10.0920     1.5090	H	1	noname	0.0000
2425	H1190   -17.1310    -9.9610    -0.0710	H	1	noname	0.0000
2426	H1191   -17.9280    -7.7840     1.5470	H	1	noname	0.0000
2427	H1192   -18.1860    -9.8660     2.7940	H	1	noname	0.0000
2428	H1193   -18.9740   -10.6080     1.3890	H	1	noname	0.0000
2429	H1194   -17.4630   -11.2910     2.0170	H	1	noname	0.0000
2430	C775   -13.9310    -9.0150    -2.8960	C.2	1	noname	0.0000
2431	C776   -13.6970    -8.2340    -1.6020	C.3	1	noname	0.0000
2432	N210   -14.3800    -8.9020    -0.5090	N.3	1	noname	0.0000
2433	O247   -13.7040   -10.2240    -2.9420	O.2	1	noname	0.0000
2434	C777   -12.2150    -8.0910    -1.2610	C.3	1	noname	0.0000
2435	S7   -11.2600    -7.3230    -2.5790	S.3	1	noname	0.0000
2436	H1195   -14.3930    -9.9120    -0.5300	H	1	noname	0.0000
2437	H1196   -14.1080    -7.2330    -1.7280	H	1	noname	0.0000
2438	H1197   -11.7920    -9.0740    -1.0550	H	1	noname	0.0000
2439	H1198   -12.1210    -7.4770    -0.3650	H	1	noname	0.0000
2440	C778   -13.8190    -8.2630    -6.3250	C.2	1	noname	0.0000
2441	C779   -14.6910    -8.8920    -5.2490	C.3	1	noname	0.0000
2442	N211   -14.4030    -8.3220    -3.9340	N.3	1	noname	0.0000
2443	O248   -13.8380    -7.0440    -6.4840	O.2	1	noname	0.0000
2444	C780   -16.1860    -8.7650    -5.5650	C.3	1	noname	0.0000
2445	C781   -16.5220    -9.3770    -6.9380	C.3	1	noname	0.0000
2446	C782   -18.0270    -9.4040    -7.1990	C.3	1	noname	0.0000
2447	C783   -19.7380   -10.1420    -5.5160	C.2	1	noname	0.0000
2448	N212   -18.6860   -10.3380    -6.2760	N.3	1	noname	0.0000
2449	N213   -20.4490    -9.0460    -5.5490	N.3	1	noname	0.0000
2450	N214   -20.0570   -11.0920    -4.6930	N.2	1	noname	0.0000
2451	H1199   -14.5910    -7.3390    -3.7970	H	1	noname	0.0000
2452	H1200   -14.4600    -9.9560    -5.2120	H	1	noname	0.0000
2453	H1201   -16.4750    -7.7140    -5.5590	H	1	noname	0.0000
2454	H1202   -16.7420    -9.2850    -4.7840	H	1	noname	0.0000
2455	H1203   -16.0540    -8.7840    -7.7240	H	1	noname	0.0000
2456	H1204   -16.1350   -10.3940    -6.9950	H	1	noname	0.0000
2457	H1205   -18.1920    -9.7440    -8.2210	H	1	noname	0.0000
2458	H1206   -18.4200    -8.3920    -7.1000	H	1	noname	0.0000
2459	H1207   -18.2220   -11.2210    -6.1210	H	1	noname	0.0000
2460	H1208   -21.2490    -8.9400    -4.9420	H	1	noname	0.0000
2461	H1209   -20.1780    -8.3280    -6.2060	H	1	noname	0.0000
2462	H1210   -19.4090   -11.8670    -4.6720	H	1	noname	0.0000
2463	H1211   -20.8330   -11.0340    -4.0490	H	1	noname	0.0000
2464	C784   -13.3390    -8.7610    -9.5110	C.2	1	noname	0.0000
2465	C785   -12.4070    -8.7040    -8.2890	C.3	1	noname	0.0000
2466	N215   -13.1190    -9.0950    -7.0830	N.3	1	noname	0.0000
2467	O249   -14.1810    -9.6510    -9.6290	O.2	1	noname	0.0000
2468	C786   -11.1810    -9.6080    -8.4500	C.3	1	noname	0.0000
2469	H1212   -13.2110   -10.0840    -6.8990	H	1	noname	0.0000
2470	H1213   -12.0510    -7.6800    -8.1740	H	1	noname	0.0000
2471	H1214   -10.5660    -9.5700    -7.5510	H	1	noname	0.0000
2472	H1215   -10.5820    -9.2720    -9.2970	H	1	noname	0.0000
2473	H1216   -11.4930   -10.6380    -8.6210	H	1	noname	0.0000
2474	C787   -13.5770    -8.9450   -12.6720	C.2	1	noname	0.0000
2475	C788   -13.9210    -7.7930   -11.7170	C.3	1	noname	0.0000
2476	N216   -13.1770    -7.8210   -10.4420	N.3	1	noname	0.0000
2477	O250   -14.3480    -9.2450   -13.5800	O.2	1	noname	0.0000
2478	C789   -13.6770    -6.4660   -12.4360	C.3	1	noname	0.0000
2479	O251   -12.2930    -6.2650   -12.6530	O.3	1	noname	0.0000
2480	H1217   -12.5720    -7.0480   -10.2060	H	1	noname	0.0000
2481	H1218   -14.9870    -7.8700   -11.5000	H	1	noname	0.0000
2482	H1219   -14.0730    -5.6530   -11.8280	H	1	noname	0.0000
2483	H1220   -14.1980    -6.4690   -13.3940	H	1	noname	0.0000
2484	H1221   -11.8730    -6.1420   -11.7980	H	1	noname	0.0000
2485	C790   -11.2610   -11.7120   -12.2640	C.2	1	noname	0.0000
2486	C791   -11.9200   -10.7240   -13.2320	C.3	1	noname	0.0000
2487	N217   -12.4250    -9.5840   -12.4700	N.3	1	noname	0.0000
2488	O252   -10.9120   -11.3440   -11.1430	O.2	1	noname	0.0000
2489	C792   -10.9150   -10.2480   -14.2940	C.3	1	noname	0.0000
2490	C793   -11.5490    -9.3110   -15.3340	C.3	1	noname	0.0000
2491	C794   -10.5370    -8.8680   -16.3790	C.2	1	noname	0.0000
2492	O253   -10.0980    -9.6420   -17.2120	O.2	1	noname	0.0000
2493	N218   -10.1260    -7.6180   -16.3750	N.3	1	noname	0.0000
2494	H1222   -11.8760    -9.3170   -11.6650	H	1	noname	0.0000
2495	H1223   -12.7490   -11.2300   -13.7270	H	1	noname	0.0000
2496	H1224   -10.5100   -11.1180   -14.8110	H	1	noname	0.0000
2497	H1225   -10.0910    -9.7320   -13.8010	H	1	noname	0.0000
2498	H1226   -11.9480    -8.4240   -14.8420	H	1	noname	0.0000
2499	H1227   -12.3700    -9.8230   -15.8370	H	1	noname	0.0000
2500	H1228    -9.3970    -7.3850   -17.0330	H	1	noname	0.0000
2501	H1229   -10.4380    -6.9680   -15.6670	H	1	noname	0.0000
2502	C795    -8.9780   -13.6440   -11.6220	C.2	1	noname	0.0000
2503	C796   -10.4550   -13.9750   -11.8290	C.3	1	noname	0.0000
2504	N219   -11.1030   -12.9710   -12.6750	N.3	1	noname	0.0000
2505	O254    -8.2130   -13.6350   -12.5820	O.2	1	noname	0.0000
2506	C797   -10.6110   -15.3730   -12.4310	C.3	1	noname	0.0000
2507	O255    -9.7810   -16.3060   -11.7630	O.3	1	noname	0.0000
2508	H1230   -11.3460   -13.2100   -13.6260	H	1	noname	0.0000
2509	H1231   -10.9500   -13.9730   -10.8570	H	1	noname	0.0000
2510	H1232   -10.3350   -15.3490   -13.4850	H	1	noname	0.0000
2511	H1233   -11.6520   -15.6840   -12.3450	H	1	noname	0.0000
2512	H1234    -8.9380   -16.3020   -12.2220	H	1	noname	0.0000
2513	C798    -6.5870   -14.4990    -9.2490	C.2	1	noname	0.0000
2514	C799    -7.1840   -13.2660    -9.9410	C.3	1	noname	0.0000
2515	N220    -8.5740   -13.4870   -10.3640	N.3	1	noname	0.0000
2516	O256    -5.6040   -14.3950    -8.5250	O.2	1	noname	0.0000
2517	C800    -7.0550   -11.9760    -9.1000	C.3	1	noname	0.0000
2518	C801    -7.8670   -12.0570    -7.7910	C.3	1	noname	0.0000
2519	C802    -7.4730   -10.7770    -9.9590	C.3	1	noname	0.0000
2520	C803    -7.6870   -10.8570    -6.8590	C.3	1	noname	0.0000
2521	H1235    -9.2810   -13.4700    -9.6430	H	1	noname	0.0000
2522	H1236    -6.5720   -13.1180   -10.8310	H	1	noname	0.0000
2523	H1237    -6.0030   -11.8390    -8.8460	H	1	noname	0.0000
2524	H1238    -8.9280   -12.1460    -8.0240	H	1	noname	0.0000
2525	H1239    -7.5520   -12.9440    -7.2420	H	1	noname	0.0000
2526	H1240    -6.9920   -10.8630   -10.9330	H	1	noname	0.0000
2527	H1241    -7.1380    -9.8500    -9.4930	H	1	noname	0.0000
2528	H1242    -8.5550   -10.7500   -10.0910	H	1	noname	0.0000
2529	H1243    -8.0670    -9.9500    -7.3300	H	1	noname	0.0000
2530	H1244    -8.2400   -11.0280    -5.9360	H	1	noname	0.0000
2531	H1245    -6.6310   -10.7330    -6.6170	H	1	noname	0.0000
2532	C804    -6.6830   -16.7360    -7.2480	C.2	1	noname	0.0000
2533	C805    -6.7240   -16.9240    -8.7770	C.3	1	noname	0.0000
2534	N221    -7.1700   -15.6900    -9.4450	N.3	1	noname	0.0000
2535	O257    -7.7000   -16.3770    -6.6580	O.2	1	noname	0.0000
2536	C806    -5.3960   -17.3890    -9.3990	C.3	1	noname	0.0000
2537	O258    -5.0290   -18.6570    -8.8940	O.3	1	noname	0.0000
2538	H1246    -8.0030   -15.7130   -10.0150	H	1	noname	0.0000
2539	H1247    -7.4600   -17.7040    -8.9760	H	1	noname	0.0000
2540	H1248    -4.6070   -16.6690    -9.1820	H	1	noname	0.0000
2541	H1249    -5.5130   -17.4590   -10.4810	H	1	noname	0.0000
2542	H1250    -4.1740   -18.8920    -9.2620	H	1	noname	0.0000
2543	C807    -4.4550   -15.3930    -4.9730	C.2	1	noname	0.0000
2544	C808    -5.3060   -16.6540    -5.1820	C.3	1	noname	0.0000
2545	N222    -5.5440   -16.9580    -6.5950	N.3	1	noname	0.0000
2546	O259    -3.9550   -15.1950    -3.8700	O.2	1	noname	0.0000
2547	C809    -4.6850   -17.8750    -4.4940	C.3	1	noname	0.0000
2548	O260    -3.4190   -18.1640    -5.0600	O.3	1	noname	0.0000
2549	H1251    -4.7760   -17.3570    -7.1160	H	1	noname	0.0000
2550	H1252    -6.2610   -16.4620    -4.6930	H	1	noname	0.0000
2551	H1253    -4.5790   -17.6880    -3.4250	H	1	noname	0.0000
2552	H1254    -5.3430   -18.7330    -4.6300	H	1	noname	0.0000
2553	H1255    -2.7890   -17.5390    -4.6950	H	1	noname	0.0000
2554	C810    -4.0620   -12.1890    -5.2220	C.2	1	noname	0.0000
2555	C811    -3.3920   -13.3550    -5.9560	C.3	1	noname	0.0000
2556	N223    -4.2440   -14.5550    -5.9960	N.3	1	noname	0.0000
2557	O261    -4.2580   -11.1100    -5.7730	O.2	1	noname	0.0000
2558	C812    -2.9470   -12.9690    -7.3790	C.3	1	noname	0.0000
2559	C813    -2.1990   -14.0500    -8.1320	C.2	1	noname	0.0000
2560	C814    -1.1240   -14.7290    -7.5250	C.2	1	noname	0.0000
2561	C815    -2.5590   -14.3490    -9.4590	C.2	1	noname	0.0000
2562	C816    -0.4270   -15.7250    -8.2330	C.2	1	noname	0.0000
2563	C817    -1.8660   -15.3440   -10.1720	C.2	1	noname	0.0000
2564	C818    -0.8010   -16.0330    -9.5590	C.2	1	noname	0.0000
2565	O262    -0.1300   -16.9940   -10.2460	O.3	1	noname	0.0000
2566	H1256    -4.7060   -14.7360    -6.8760	H	1	noname	0.0000
2567	H1257    -2.4940   -13.5880    -5.3820	H	1	noname	0.0000
2568	H1258    -2.2990   -12.0940    -7.3350	H	1	noname	0.0000
2569	H1259    -3.8250   -12.6670    -7.9510	H	1	noname	0.0000
2570	H1260    -0.8120   -14.4640    -6.5260	H	1	noname	0.0000
2571	H1261    -3.3510   -13.7940    -9.9390	H	1	noname	0.0000
2572	H1262     0.4060   -16.2330    -7.7690	H	1	noname	0.0000
2573	H1263    -2.1190   -15.5570   -11.2000	H	1	noname	0.0000
2574	H1264     0.6300   -17.3090    -9.7500	H	1	noname	0.0000
2575	C819    -4.3540   -11.3220    -1.7740	C.2	1	noname	0.0000
2576	C820    -5.0910   -11.4450    -3.1060	C.3	1	noname	0.0000
2577	N224    -4.4500   -12.4240    -3.9690	N.3	1	noname	0.0000
2578	O263    -4.0950   -12.3200    -1.0980	O.2	1	noname	0.0000
2579	C821    -6.5570   -11.8290    -2.8920	C.3	1	noname	0.0000
2580	C822    -7.3320   -10.7360    -2.1230	C.3	1	noname	0.0000
2581	C823    -8.3110   -10.0150    -3.0420	C.3	1	noname	0.0000
2582	C824    -8.0480   -11.3400    -0.9210	C.3	1	noname	0.0000
2583	H1265    -4.2530   -13.3380    -3.5850	H	1	noname	0.0000
2584	H1266    -5.0690   -10.4750    -3.6040	H	1	noname	0.0000
2585	H1267    -6.5860   -12.7720    -2.3450	H	1	noname	0.0000
2586	H1268    -7.0240   -12.0040    -3.8610	H	1	noname	0.0000
2587	H1269    -6.6610    -9.9690    -1.7360	H	1	noname	0.0000
2588	H1270    -8.9670   -10.7390    -3.5260	H	1	noname	0.0000
2589	H1271    -8.9170    -9.3060    -2.4780	H	1	noname	0.0000
2590	H1272    -7.7440    -9.4850    -3.8080	H	1	noname	0.0000
2591	H1273    -8.7590   -10.6210    -0.5140	H	1	noname	0.0000
2592	H1274    -7.3050   -11.5850    -0.1610	H	1	noname	0.0000
2593	H1275    -8.5550   -12.2580    -1.2190	H	1	noname	0.0000
2594	C825    -4.5630    -8.8770     0.7340	C.2	1	noname	0.0000
2595	C826    -3.5710    -9.7300    -0.0640	C.3	1	noname	0.0000
2596	N225    -4.1200   -10.0830    -1.3620	N.3	1	noname	0.0000
2597	O264    -5.3290    -8.1010     0.1610	O.2	1	noname	0.0000
2598	C827    -2.2410    -9.0070    -0.2930	C.3	1	noname	0.0000
2599	C828    -1.2260    -9.8700    -1.0140	C.2	1	noname	0.0000
2600	O265    -1.1590   -11.0770    -0.8480	O.2	1	noname	0.0000
2601	N226    -0.4000    -9.2790    -1.8340	N.3	1	noname	0.0000
2602	H1276    -4.3520    -9.3290    -1.9930	H	1	noname	0.0000
2603	H1277    -3.3750   -10.6390     0.5040	H	1	noname	0.0000
2604	H1278    -1.8120    -8.7020     0.6620	H	1	noname	0.0000
2605	H1279    -2.4260    -8.1120    -0.8880	H	1	noname	0.0000
2606	H1280     0.2870    -9.8830    -2.2640	H	1	noname	0.0000
2607	H1281    -0.5170    -8.3060    -2.0760	H	1	noname	0.0000
2608	C829    -4.3220    -7.3170     3.8490	C.2	1	noname	0.0000
2609	C830    -5.2640    -8.1420     2.9890	C.3	1	noname	0.0000
2610	N227    -4.5210    -8.9930     2.0610	N.3	1	noname	0.0000
2611	O266    -3.3650    -7.8400     4.4180	O.2	1	noname	0.0000
2612	C831    -6.1890    -8.9610     3.8880	C.3	1	noname	0.0000
2613	C832    -7.4000    -9.5040     3.2090	C.2	1	noname	0.0000
2614	C833    -7.5750   -10.7680     2.7630	C.2	1	noname	0.0000
2615	C834    -8.6340    -8.7920     2.9030	C.2	1	noname	0.0000
2616	C835    -9.5330    -9.7010     2.2690	C.2	1	noname	0.0000
2617	C836    -9.0950    -7.4780     3.1360	C.2	1	noname	0.0000
2618	C837   -10.8300    -9.3270     1.8900	C.2	1	noname	0.0000
2619	C838   -10.4010    -7.0970     2.7760	C.2	1	noname	0.0000
2620	C839   -11.2670    -8.0180     2.1590	C.2	1	noname	0.0000
2621	N228    -8.8400   -10.8930     2.2230	N.3	1	noname	0.0000
2622	H1282    -3.8370    -9.6290     2.4450	H	1	noname	0.0000
2623	H1283    -5.8890    -7.4530     2.4210	H	1	noname	0.0000
2624	H1284    -6.5410    -8.3180     4.6950	H	1	noname	0.0000
2625	H1285    -5.6230    -9.7680     4.3530	H	1	noname	0.0000
2626	H1286    -6.8410   -11.5570     2.8310	H	1	noname	0.0000
2627	H1287    -9.1990   -11.7640     1.8570	H	1	noname	0.0000
2628	H1288    -8.4360    -6.7650     3.6090	H	1	noname	0.0000
2629	H1289   -11.4900   -10.0440     1.4260	H	1	noname	0.0000
2630	H1290   -10.7390    -6.0920     2.9770	H	1	noname	0.0000
2631	H1291   -12.2720    -7.7210     1.8960	H	1	noname	0.0000
2632	C840    -4.7370    -4.4650     5.8900	C.2	1	noname	0.0000
2633	C841    -3.9010    -5.0620     4.7680	C.3	1	noname	0.0000
2634	N229    -4.6590    -6.0440     4.0090	N.3	1	noname	0.0000
2635	O267    -5.9280    -4.2160     5.7120	O.2	1	noname	0.0000
2636	C842    -3.4230    -3.9610     3.8210	C.3	1	noname	0.0000
2637	C843    -2.4230    -4.4670     2.8150	C.2	1	noname	0.0000
2638	C844    -1.0760    -4.5110     3.1920	C.2	1	noname	0.0000
2639	C845    -2.8260    -4.9550     1.5560	C.2	1	noname	0.0000
2640	C846    -0.1280    -5.0630     2.3280	C.2	1	noname	0.0000
2641	C847    -1.8610    -5.4880     0.6780	C.2	1	noname	0.0000
2642	C848    -0.5090    -5.5480     1.0610	C.2	1	noname	0.0000
2643	O268     0.4250    -6.0830     0.2370	O.3	1	noname	0.0000
2644	H1292    -5.4550    -5.7040     3.4890	H	1	noname	0.0000
2645	H1293    -3.0260    -5.5440     5.2050	H	1	noname	0.0000
2646	H1294    -2.9620    -3.1650     4.4050	H	1	noname	0.0000
2647	H1295    -4.2790    -3.5350     3.2980	H	1	noname	0.0000
2648	H1296    -0.7680    -4.1340     4.1560	H	1	noname	0.0000
2649	H1297    -3.8670    -4.9390     1.2680	H	1	noname	0.0000
2650	H1298     0.8930    -5.1230     2.6730	H	1	noname	0.0000
2651	H1299    -2.1310    -5.8740    -0.2940	H	1	noname	0.0000
2652	H1300     1.2950    -5.9930     0.6320	H	1	noname	0.0000
2653	C849    -3.8890    -2.0250     8.1310	C.2	1	noname	0.0000
2654	C850    -4.6280    -3.3600     8.1000	C.3	1	noname	0.0000
2655	N230    -4.0910    -4.1730     7.0150	N.3	1	noname	0.0000
2656	O269    -2.6620    -1.9970     8.1950	O.2	1	noname	0.0000
2657	C851    -4.4560    -4.1120     9.4250	C.3	1	noname	0.0000
2658	C852    -5.1050    -3.3980    10.6170	C.3	1	noname	0.0000
2659	C853    -4.8100    -4.0950    11.9420	C.2	1	noname	0.0000
2660	O270    -3.6740    -4.1650    12.3910	O.2	1	noname	0.0000
2661	N231    -5.8020    -4.6150    12.6280	N.3	1	noname	0.0000
2662	H1301    -3.1140    -4.4230     7.0690	H	1	noname	0.0000
2663	H1302    -5.6900    -3.1750     7.9370	H	1	noname	0.0000
2664	H1303    -3.3950    -4.2640     9.6230	H	1	noname	0.0000
2665	H1304    -4.9360    -5.0850     9.3220	H	1	noname	0.0000
2666	H1305    -6.1820    -3.3710    10.4520	H	1	noname	0.0000
2667	H1306    -4.7320    -2.3770    10.6920	H	1	noname	0.0000
2668	H1307    -6.7510    -4.6060    12.2800	H	1	noname	0.0000
2669	H1308    -5.5840    -5.0570    13.5090	H	1	noname	0.0000
2670	C854    -4.7080     1.1130     9.4860	C.2	1	noname	0.0000
2671	C855    -4.0670     0.4180     8.2860	C.3	1	noname	0.0000
2672	N232    -4.6250    -0.9190     8.1340	N.3	1	noname	0.0000
2673	O271    -5.8870     1.4740     9.4620	O.2	1	noname	0.0000
2674	C856    -4.2640     1.2080     6.9870	C.3	1	noname	0.0000
2675	C857    -3.4210     2.4910     7.0200	C.3	1	noname	0.0000
2676	C858    -3.6090     3.3940     5.8060	C.2	1	noname	0.0000
2677	O272    -4.6290     3.3900     5.1260	O.2	1	noname	0.0000
2678	N233    -2.6370     4.2340     5.5370	N.3	1	noname	0.0000
2679	H1309    -5.6210    -0.9940     7.9840	H	1	noname	0.0000
2680	H1310    -2.9940     0.3510     8.4680	H	1	noname	0.0000
2681	H1311    -3.9460     0.6040     6.1380	H	1	noname	0.0000
2682	H1312    -5.3180     1.4570     6.8730	H	1	noname	0.0000
2683	H1313    -3.6670     3.0780     7.9050	H	1	noname	0.0000
2684	H1314    -2.3710     2.2080     7.0840	H	1	noname	0.0000
2685	H1315    -1.8570     4.3100     6.1730	H	1	noname	0.0000
2686	H1316    -2.7750     4.9180     4.8070	H	1	noname	0.0000
2687	C859    -4.2600     3.6150    11.3440	C.2	1	noname	0.0000
2688	C860    -4.3450     2.1240    11.6940	C.3	1	noname	0.0000
2689	N234    -3.9240     1.3120    10.5470	N.3	1	noname	0.0000
2690	O273    -3.4170     3.9850    10.5230	O.2	1	noname	0.0000
2691	C861    -3.5180     1.7820    12.9410	C.3	1	noname	0.0000
2692	C862    -3.7960     0.3440    13.3910	C.3	1	noname	0.0000
2693	C863    -3.1640     0.0340    14.7510	C.3	1	noname	0.0000
2694	C864    -3.6140    -1.3750    15.1430	C.3	1	noname	0.0000
2695	N235    -3.3380    -1.6990    16.5600	N.3	1	noname	0.0000
2696	H1317    -2.9550     1.0380    10.4780	H	1	noname	0.0000
2697	H1318    -5.3880     1.8900    11.9080	H	1	noname	0.0000
2698	H1319    -3.7960     2.4640    13.7450	H	1	noname	0.0000
2699	H1320    -2.4550     1.9050    12.7320	H	1	noname	0.0000
2700	H1321    -3.4100    -0.3550    12.6490	H	1	noname	0.0000
2701	H1322    -4.8740     0.2060    13.4700	H	1	noname	0.0000
2702	H1323    -2.0770     0.0870    14.6860	H	1	noname	0.0000
2703	H1324    -3.5280     0.7540    15.4840	H	1	noname	0.0000
2704	H1325    -3.1610    -2.1100    14.4780	H	1	noname	0.0000
2705	H1326    -4.6910    -1.4320    14.9870	H	1	noname	0.0000
2706	H1327    -2.3610    -1.8780    16.7410	H	1	noname	0.0000
2707	H1328    -3.8920    -2.5130    16.7870	H	1	noname	0.0000
2708	H1329    -3.6850    -0.9650    17.1600	H	1	noname	0.0000
2709	C865    -3.5920     6.4640    11.9120	C.2	1	noname	0.0000
2710	C866    -5.0100     5.9210    11.7110	C.3	1	noname	0.0000
2711	N236    -5.0880     4.4830    11.9510	N.3	1	noname	0.0000
2712	O274    -2.9340     6.1520    12.9030	O.2	1	noname	0.0000
2713	C867    -5.9980     6.5610    12.6850	C.3	1	noname	0.0000
2714	C868    -7.0200     5.4530    12.9070	C.3	1	noname	0.0000
2715	C869    -6.1810     4.1780    12.8660	C.3	1	noname	0.0000
2716	H1330    -5.3370     6.1170    10.6900	H	1	noname	0.0000
2717	H1331    -6.4570     7.4570    12.2680	H	1	noname	0.0000
2718	H1332    -5.5070     6.7890    13.6310	H	1	noname	0.0000
2719	H1333    -7.5150     5.5840    13.8690	H	1	noname	0.0000
2720	H1334    -7.7440     5.4460    12.0920	H	1	noname	0.0000
2721	H1335    -5.7810     3.9670    13.8580	H	1	noname	0.0000
2722	H1336    -6.7930     3.3470    12.5170	H	1	noname	0.0000
2723	C870    -0.6140     6.8390    10.8520	C.2	1	noname	0.0000
2724	C871    -1.7710     7.8380    10.9770	C.3	1	noname	0.0000
2725	N237    -3.1120     7.2480    10.9440	N.3	1	noname	0.0000
2726	O275     0.5290     7.2190    11.0880	O.2	1	noname	0.0000
2727	H1337    -3.6970     7.4460    10.1460	H	1	noname	0.0000
2728	H1338    -1.6800     8.5520    10.1580	H	1	noname	0.0000
2729	H1339    -1.6440     8.3800    11.9140	H	1	noname	0.0000
2730	C872     0.1670     4.0340     8.8750	C.2	1	noname	0.0000
2731	C873     0.1480     4.5370    10.3170	C.3	1	noname	0.0000
2732	N238    -0.8780     5.5710    10.5090	N.3	1	noname	0.0000
2733	O276    -0.8370     4.0870     8.1600	O.2	1	noname	0.0000
2734	C874    -0.0530     3.3830    11.3180	C.3	1	noname	0.0000
2735	C875    -0.0350     3.7930    12.8040	C.3	1	noname	0.0000
2736	C876     1.2930     4.4310    13.2440	C.3	1	noname	0.0000
2737	C877     1.2520     4.7940    14.7330	C.3	1	noname	0.0000
2738	N239     2.4910     5.4980    15.1530	N.3	1	noname	0.0000
2739	H1340    -1.8370     5.3060    10.3390	H	1	noname	0.0000
2740	H1341     1.1320     4.9760    10.4850	H	1	noname	0.0000
2741	H1342    -1.0080     2.9030    11.1030	H	1	noname	0.0000
2742	H1343     0.7270     2.6390    11.1570	H	1	noname	0.0000
2743	H1344    -0.8510     4.4890    13.0000	H	1	noname	0.0000
2744	H1345    -0.2070     2.9010    13.4050	H	1	noname	0.0000
2745	H1346     1.4670     5.3390    12.6670	H	1	noname	0.0000
2746	H1347     2.1080     3.7320    13.0550	H	1	noname	0.0000
2747	H1348     1.1140     3.8850    15.3180	H	1	noname	0.0000
2748	H1349     0.3890     5.4380    14.9030	H	1	noname	0.0000
2749	H1350     2.6080     6.3430    14.6120	H	1	noname	0.0000
2750	H1351     3.3080     4.9220    15.0100	H	1	noname	0.0000
2751	H1352     2.4440     5.7620    16.1270	H	1	noname	0.0000
2752	C878     0.6350     1.5110     7.1790	C.2	1	noname	0.0000
2753	C879     1.4600     2.8180     7.1930	C.3	1	noname	0.0000
2754	N240     1.3200     3.5160     8.4630	N.3	1	noname	0.0000
2755	O277     0.3800     0.9310     8.2440	O.2	1	noname	0.0000
2756	C880     2.9460     2.5590     6.9360	C.3	1	noname	0.0000
2757	H1353     2.1190     3.5330     9.0810	H	1	noname	0.0000
2758	H1354     1.0990     3.4860     6.4110	H	1	noname	0.0000
2759	H1355     3.4990     3.4980     6.9770	H	1	noname	0.0000
2760	H1356     3.0800     2.1250     5.9460	H	1	noname	0.0000
2761	H1357     3.3480     1.8710     7.6800	H	1	noname	0.0000
2762	C881     0.4620    -1.4150     6.3590	C.2	1	noname	0.0000
2763	C882    -0.4340    -0.2700     5.8650	C.3	1	noname	0.0000
2764	N241     0.2080     1.0330     5.9980	N.3	1	noname	0.0000
2765	O278     1.6740    -1.4150     6.1590	O.2	1	noname	0.0000
2766	C883    -0.7680    -0.4200     4.3760	C.3	1	noname	0.0000
2767	C884    -0.8350     1.0230     3.8790	C.3	1	noname	0.0000
2768	C885     0.2380     1.7150     4.7110	C.3	1	noname	0.0000
2769	H1358    -1.3590    -0.2590     6.4410	H	1	noname	0.0000
2770	H1359    -1.7130    -0.9410     4.2240	H	1	noname	0.0000
2771	H1360     0.0390    -0.9380     3.8590	H	1	noname	0.0000
2772	H1361    -1.8090     1.4510     4.1160	H	1	noname	0.0000
2773	H1362    -0.6270     1.0960     2.8120	H	1	noname	0.0000
2774	H1363     0.0010     2.7760     4.7950	H	1	noname	0.0000
2775	H1364     1.2150     1.5780     4.2480	H	1	noname	0.0000
2776	C886    -0.1550    -4.8690     6.7690	C.2	1	noname	0.0000
2777	C887     0.5050    -3.6610     7.4210	C.3	1	noname	0.0000
2778	N242    -0.1510    -2.4280     6.9730	N.3	1	noname	0.0000
2779	O279    -1.3730    -5.0160     6.8530	O.2	1	noname	0.0000
2780	C888     0.4410    -3.7280     8.9550	C.3	1	noname	0.0000
2781	C889     1.1330    -4.9860     9.4990	C.3	1	noname	0.0000
2782	C890     1.0400    -5.0690    11.0250	C.3	1	noname	0.0000
2783	C891     1.6720    -6.3890    11.4810	C.3	1	noname	0.0000
2784	N243     1.5640    -6.5830    12.9480	N.3	1	noname	0.0000
2785	H1365    -1.1310    -2.3180     7.1900	H	1	noname	0.0000
2786	H1366     1.5530    -3.6390     7.1190	H	1	noname	0.0000
2787	H1367     0.9290    -2.8440     9.3680	H	1	noname	0.0000
2788	H1368    -0.6020    -3.7260     9.2700	H	1	noname	0.0000
2789	H1369     0.6550    -5.8720     9.0820	H	1	noname	0.0000
2790	H1370     2.1810    -4.9780     9.1990	H	1	noname	0.0000
2791	H1371    -0.0090    -5.0390    11.3200	H	1	noname	0.0000
2792	H1372     1.5670    -4.2240    11.4680	H	1	noname	0.0000
2793	H1373     2.7180    -6.3990    11.1750	H	1	noname	0.0000
2794	H1374     1.1730    -7.2060    10.9590	H	1	noname	0.0000
2795	H1375     0.5950    -6.5740    13.2330	H	1	noname	0.0000
2796	H1376     1.9600    -7.4750    13.2090	H	1	noname	0.0000
2797	H1377     2.0630    -5.8560    13.4400	H	1	noname	0.0000
2798	C892    -0.3810    -7.9360     6.6760	C.2	1	noname	0.0000
2799	C893     0.1500    -7.0000     5.5770	C.3	1	noname	0.0000
2800	N244     0.6390    -5.7480     6.1580	N.3	1	noname	0.0000
2801	O280     0.3200    -8.2180     7.6490	O.2	1	noname	0.0000
2802	C894     1.2890    -7.6450     4.7640	C.3	1	noname	0.0000
2803	C895     0.9100    -8.9510     4.0390	C.3	1	noname	0.0000
2804	C896    -0.1650    -8.7460     2.9760	C.3	1	noname	0.0000
2805	C897     2.1450    -9.5140     3.3370	C.3	1	noname	0.0000
2806	H1378     1.6300    -5.5580     6.1170	H	1	noname	0.0000
2807	H1379    -0.6700    -6.7640     4.8990	H	1	noname	0.0000
2808	H1380     1.6410    -6.9280     4.0220	H	1	noname	0.0000
2809	H1381     2.1170    -7.8550     5.4410	H	1	noname	0.0000
2810	H1382     0.5590    -9.6850     4.7640	H	1	noname	0.0000
2811	H1383    -0.3610    -9.6900     2.4670	H	1	noname	0.0000
2812	H1384    -1.0970    -8.4020     3.4240	H	1	noname	0.0000
2813	H1385     0.1720    -8.0190     2.2370	H	1	noname	0.0000
2814	H1386     1.9000   -10.4630     2.8590	H	1	noname	0.0000
2815	H1387     2.4930    -8.8160     2.5750	H	1	noname	0.0000
2816	H1388     2.9430    -9.6860     4.0590	H	1	noname	0.0000
2817	C898    -2.2400   -10.8050     6.7870	C.2	1	noname	0.0000
2818	C899    -2.2430    -9.4040     7.3870	C.3	1	noname	0.0000
2819	N245    -1.6110    -8.4210     6.5070	N.3	1	noname	0.0000
2820	O281    -1.8400   -11.7620     7.4440	O.2	1	noname	0.0000
2821	C900    -3.6930    -9.0110     7.7050	C.3	1	noname	0.0000
2822	C901    -3.8870    -7.7780     8.5950	C.3	1	noname	0.0000
2823	C902    -5.3830    -7.6850     8.8980	C.3	1	noname	0.0000
2824	C903    -3.1360    -7.8610     9.9250	C.3	1	noname	0.0000
2825	H1389    -2.1280    -8.1180     5.6940	H	1	noname	0.0000
2826	H1390    -1.6870    -9.4560     8.3230	H	1	noname	0.0000
2827	H1391    -4.2370    -8.8570     6.7730	H	1	noname	0.0000
2828	H1392    -4.1470    -9.8640     8.2100	H	1	noname	0.0000
2829	H1393    -3.5670    -6.8810     8.0640	H	1	noname	0.0000
2830	H1394    -5.9120    -7.2900     8.0310	H	1	noname	0.0000
2831	H1395    -5.7860    -8.6650     9.1530	H	1	noname	0.0000
2832	H1396    -5.5450    -7.0460     9.7670	H	1	noname	0.0000
2833	H1397    -2.0610    -7.8740     9.7460	H	1	noname	0.0000
2834	H1398    -3.4420    -8.7580    10.4630	H	1	noname	0.0000
2835	H1399    -3.3670    -6.9850    10.5320	H	1	noname	0.0000
2836	C904    -2.3910   -12.0200     3.4260	C.2	1	noname	0.0000
2837	C905    -2.9060   -12.1890     4.8450	C.3	1	noname	0.0000
2838	N246    -2.7260   -10.9210     5.5530	N.3	1	noname	0.0000
2839	O282    -2.6640   -10.9980     2.8000	O.2	1	noname	0.0000
2840	C906    -4.3880   -12.6280     4.8570	C.3	1	noname	0.0000
2841	C907    -4.8450   -13.0510     6.2700	C.3	1	noname	0.0000
2842	C908    -4.6820   -13.7790     3.8790	C.3	1	noname	0.0000
2843	C909    -6.2970   -12.6730     6.5370	C.3	1	noname	0.0000
2844	H1400    -2.9720   -10.0770     5.0560	H	1	noname	0.0000
2845	H1401    -2.3100   -12.9570     5.3390	H	1	noname	0.0000
2846	H1402    -4.9860   -11.7760     4.5340	H	1	noname	0.0000
2847	H1403    -4.7130   -14.1260     6.3990	H	1	noname	0.0000
2848	H1404    -4.2520   -12.5490     7.0340	H	1	noname	0.0000
2849	H1405    -4.5390   -13.4570     2.8480	H	1	noname	0.0000
2850	H1406    -4.0210   -14.6220     4.0840	H	1	noname	0.0000
2851	H1407    -5.7150   -14.1100     3.9820	H	1	noname	0.0000
2852	H1408    -6.3390   -11.5920     6.6680	H	1	noname	0.0000
2853	H1409    -6.9340   -12.9560     5.6990	H	1	noname	0.0000
2854	H1410    -6.6380   -13.1520     7.4540	H	1	noname	0.0000
2855	C910    -1.7960   -14.4070     0.8830	C.2	1	noname	0.0000
2856	C911    -1.2700   -13.1310     1.5360	C.3	1	noname	0.0000
2857	N247    -1.6960   -13.0320     2.9230	N.3	1	noname	0.0000
2858	O283    -2.2220   -15.3420     1.5650	O.2	1	noname	0.0000
2859	C912     0.2580   -13.0140     1.4400	C.3	1	noname	0.0000
2860	C913     1.0170   -14.1580     2.0890	C.2	1	noname	0.0000
2861	C914     1.2830   -14.1340     3.4730	C.2	1	noname	0.0000
2862	C915     1.4390   -15.2560     1.3130	C.2	1	noname	0.0000
2863	C916     1.9620   -15.2040     4.0830	C.2	1	noname	0.0000
2864	C917     2.1240   -16.3270     1.9180	C.2	1	noname	0.0000
2865	C918     2.3850   -16.3010     3.3040	C.2	1	noname	0.0000
2866	O284     3.0210   -17.3450     3.8950	O.3	1	noname	0.0000
2867	H1411    -1.5630   -13.8520     3.4970	H	1	noname	0.0000
2868	H1412    -1.7140   -12.2990     0.9890	H	1	noname	0.0000
2869	H1413     0.5400   -12.9540     0.3890	H	1	noname	0.0000
2870	H1414     0.5640   -12.0750     1.9020	H	1	noname	0.0000
2871	H1415     0.9480   -13.2990     4.0700	H	1	noname	0.0000
2872	H1416     1.2360   -15.2720     0.2520	H	1	noname	0.0000
2873	H1417     2.1480   -15.1890     5.1460	H	1	noname	0.0000
2874	H1418     2.4540   -17.1720     1.3320	H	1	noname	0.0000
2875	H1419     3.1070   -17.2030     4.8410	H	1	noname	0.0000
2876	C919    -3.6900   -16.0240    -0.8480	C.2	1	noname	0.0000
2877	C920    -2.2570   -15.5810    -1.2360	C.3	1	noname	0.0000
2878	N248    -1.7700   -14.4470    -0.4490	N.3	1	noname	0.0000
2879	O285    -3.9660   -17.2130    -0.6970	O.2	1	noname	0.0000
2880	C921    -1.2200   -16.7140    -1.2120	C.3	1	noname	0.0000
2881	H1420    -1.4780   -13.6110    -0.9360	H	1	noname	0.0000
2882	H1421    -2.3000   -15.2260    -2.2660	H	1	noname	0.0000
2883	H1422    -1.5200   -17.4960    -1.9090	H	1	noname	0.0000
2884	H1423    -0.2440   -16.3300    -1.5080	H	1	noname	0.0000
2885	H1424    -1.1570   -17.1400    -0.2100	H	1	noname	0.0000
2886	C922    -6.2170   -15.7610     1.2220	C.2	1	noname	0.0000
2887	C923    -5.9700   -15.1680    -0.1810	C.3	1	noname	0.0000
2888	N249    -4.5770   -15.0510    -0.6210	N.3	1	noname	0.0000
2889	O286    -7.2140   -15.3920     1.8450	O.2	1	noname	0.0000
2890	C924    -6.7830   -15.8810    -1.2690	C.3	1	noname	0.0000
2891	H1425    -4.2460   -14.1100    -0.7800	H	1	noname	0.0000
2892	H1426    -6.3550   -14.1490    -0.1310	H	1	noname	0.0000
2893	H1427    -6.6490   -15.3740    -2.2240	H	1	noname	0.0000
2894	H1428    -7.8390   -15.8700    -0.9990	H	1	noname	0.0000
2895	H1429    -6.4670   -16.9200    -1.3640	H	1	noname	0.0000
2896	C925    -4.4100   -17.5430     3.9450	C.2	1	noname	0.0000
2897	C926    -5.6020   -17.3710     2.9980	C.3	1	noname	0.0000
2898	N250    -5.3470   -16.6330     1.7460	N.3	1	noname	0.0000
2899	O287    -4.6050   -17.9870     5.0760	O.2	1	noname	0.0000
2900	C927    -6.1880   -18.7470     2.6640	C.3	1	noname	0.0000
2901	O288    -5.3070   -19.5100     1.8590	O.3	1	noname	0.0000
2902	H1430    -4.6180   -16.9670     1.1320	H	1	noname	0.0000
2903	H1431    -6.3540   -16.8340     3.5770	H	1	noname	0.0000
2904	H1432    -7.1270   -18.6090     2.1270	H	1	noname	0.0000
2905	H1433    -6.4000   -19.2870     3.5870	H	1	noname	0.0000
2906	H1434    -4.4630   -19.6120     2.3050	H	1	noname	0.0000
2907	C928    -1.7500   -16.2360     5.2910	C.2	1	noname	0.0000
2908	C929    -1.9880   -17.4190     4.3600	C.3	1	noname	0.0000
2909	N251    -3.1850   -17.2160     3.5350	N.3	1	noname	0.0000
2910	O289    -1.5790   -15.1100     4.8360	O.2	1	noname	0.0000
2911	C930    -0.7570   -17.6370     3.4830	C.3	1	noname	0.0000
2912	O290    -0.9310   -18.8010     2.7000	O.3	1	noname	0.0000
2913	H1435    -3.0590   -16.7770     2.6340	H	1	noname	0.0000
2914	H1436    -2.1180   -18.3170     4.9640	H	1	noname	0.0000
2915	H1437    -0.6060   -16.7730     2.8370	H	1	noname	0.0000
2916	H1438     0.1210   -17.7620     4.1180	H	1	noname	0.0000
2917	H1439    -0.3520   -18.7310     1.9380	H	1	noname	0.0000
2918	C931     0.0540   -14.9790     7.4880	C.2	1	noname	0.0000
2919	C932    -1.4080   -15.4240     7.5750	C.3	1	noname	0.0000
2920	N252    -1.7030   -16.4760     6.6000	N.3	1	noname	0.0000
2921	O291     0.9700   -15.8020     7.4390	O.2	1	noname	0.0000
2922	C933    -1.7600   -15.9010     8.9940	C.3	1	noname	0.0000
2923	C934    -3.2720   -15.9120     9.2710	C.3	1	noname	0.0000
2924	C935    -3.5670   -16.7250    10.5310	C.3	1	noname	0.0000
2925	C936    -3.8010   -14.4930     9.4900	C.3	1	noname	0.0000
2926	H1440    -1.8460   -17.4200     6.9300	H	1	noname	0.0000
2927	H1441    -2.0160   -14.5540     7.3290	H	1	noname	0.0000
2928	H1442    -1.3510   -16.9020     9.1370	H	1	noname	0.0000
2929	H1443    -1.2820   -15.2450     9.7220	H	1	noname	0.0000
2930	H1444    -3.7970   -16.3660     8.4310	H	1	noname	0.0000
2931	H1445    -4.6380   -16.7070    10.7330	H	1	noname	0.0000
2932	H1446    -3.2540   -17.7590    10.3830	H	1	noname	0.0000
2933	H1447    -3.0340   -16.3010    11.3820	H	1	noname	0.0000
2934	H1448    -3.4660   -14.1240    10.4590	H	1	noname	0.0000
2935	H1449    -4.8910   -14.5060     9.4690	H	1	noname	0.0000
2936	H1450    -3.4420   -13.8140     8.7160	H	1	noname	0.0000
2937	C937     2.0870   -13.4010     9.1430	C.2	1	noname	0.0000
2938	C938     1.5920   -13.0930     7.7210	C.3	1	noname	0.0000
2939	N253     0.2690   -13.6660     7.5210	N.3	1	noname	0.0000
2940	O292     1.3140   -13.4660    10.1020	O.2	1	noname	0.0000
2941	C939     1.5640   -11.5890     7.3910	C.3	1	noname	0.0000
2942	C940     2.8780   -10.8230     7.6300	C.3	1	noname	0.0000
2943	C941     4.0530   -11.3350     6.7970	C.2	1	noname	0.0000
2944	O293     4.4420   -12.4910     6.8640	O.2	1	noname	0.0000
2945	N254     4.6800   -10.4990     6.0000	N.3	1	noname	0.0000
2946	H1451    -0.5280   -13.0460     7.5680	H	1	noname	0.0000
2947	H1452     2.2680   -13.5840     7.0210	H	1	noname	0.0000
2948	H1453     1.2850   -11.4720     6.3430	H	1	noname	0.0000
2949	H1454     0.7910   -11.1110     7.9910	H	1	noname	0.0000
2950	H1455     2.7020    -9.7760     7.3850	H	1	noname	0.0000
2951	H1456     3.1480   -10.8630     8.6850	H	1	noname	0.0000
2952	H1457     4.4130    -9.5270     5.9380	H	1	noname	0.0000
2953	H1458     5.4410   -10.8750     5.4540	H	1	noname	0.0000
2954	C942     3.6900   -12.7960    11.6270	C.2	1	noname	0.0000
2955	C943     4.0290   -13.8630    10.5770	C.3	1	noname	0.0000
2956	N255     3.4000   -13.5790     9.2880	N.3	1	noname	0.0000
2957	O294     3.7120   -11.5940    11.3520	O.2	1	noname	0.0000
2958	C944     5.5410   -13.9810    10.4080	C.3	1	noname	0.0000
2959	O295     6.1080   -14.4450    11.6160	O.3	1	noname	0.0000
2960	H1459     3.9810   -13.4670     8.4690	H	1	noname	0.0000
2961	H1460     3.6540   -14.8250    10.9270	H	1	noname	0.0000
2962	H1461     5.9580   -13.0090    10.1480	H	1	noname	0.0000
2963	H1462     5.7630   -14.6920     9.6110	H	1	noname	0.0000
2964	H1463     7.0620   -14.4730    11.5150	H	1	noname	0.0000
2965	C945     1.5380   -11.8330    13.9030	C.2	1	noname	0.0000
2966	C946     2.9720   -12.3760    13.9600	C.3	1	noname	0.0000
2967	N256     3.3590   -13.2410    12.8410	N.3	1	noname	0.0000
2968	O296     1.1370   -11.1040    14.8090	O.2	1	noname	0.0000
2969	H1464     3.3910   -14.2390    12.9980	H	1	noname	0.0000
2970	H1465     3.0770   -12.9370    14.8890	H	1	noname	0.0000
2971	H1466     3.6510   -11.5240    14.0000	H	1	noname	0.0000
2972	C947    -1.4750   -12.8250    13.6740	C.2	1	noname	0.0000
2973	C948    -0.6770   -11.8260    12.8270	C.3	1	noname	0.0000
2974	N257     0.7510   -12.1680    12.8760	N.3	1	noname	0.0000
2975	O297    -1.3080   -14.0340    13.5010	O.2	1	noname	0.0000
2976	C949    -1.2030   -11.7680    11.3870	C.3	1	noname	0.0000
2977	C950    -2.6990   -11.4310    11.3370	C.3	1	noname	0.0000
2978	C951    -0.4530   -10.6740    10.6190	C.3	1	noname	0.0000
2979	H1467     1.1190   -12.7470    12.1340	H	1	noname	0.0000
2980	H1468    -0.7910   -10.8200    13.2310	H	1	noname	0.0000
2981	H1469    -1.0490   -12.7300    10.8980	H	1	noname	0.0000
2982	H1470    -3.2810   -12.2320    11.7940	H	1	noname	0.0000
2983	H1471    -3.0180   -11.3360    10.2990	H	1	noname	0.0000
2984	H1472    -2.8990   -10.5000    11.8680	H	1	noname	0.0000
2985	H1473    -0.6930    -9.6870    11.0120	H	1	noname	0.0000
2986	H1474    -0.7460   -10.7430     9.5710	H	1	noname	0.0000
2987	H1475     0.6240   -10.8380    10.6590	H	1	noname	0.0000
2988	C952    -4.0550   -14.1900    14.5960	C.2	1	noname	0.0000
2989	C953    -3.1630   -13.2460    15.4130	C.3	1	noname	0.0000
2990	N258    -2.3490   -12.3600    14.5870	N.3	1	noname	0.0000
2991	O298    -4.6990   -13.7720    13.6360	O.2	1	noname	0.0000
2992	C954    -3.9960   -12.3080    16.2880	C.3	1	noname	0.0000
2993	C955    -3.1170   -11.0710    16.4240	C.3	1	noname	0.0000
2994	C956    -2.4960   -10.9800    15.0360	C.3	1	noname	0.0000
2995	H1476    -2.4960   -13.8320    16.0460	H	1	noname	0.0000
2996	H1477    -4.2370   -12.7530    17.2540	H	1	noname	0.0000
2997	H1478    -4.8970   -12.0120    15.7500	H	1	noname	0.0000
2998	H1479    -2.3400   -11.2450    17.1680	H	1	noname	0.0000
2999	H1480    -3.6930   -10.1770    16.6620	H	1	noname	0.0000
3000	H1481    -1.5360   -10.4700    15.1140	H	1	noname	0.0000
3001	H1482    -3.1640   -10.4430    14.3620	H	1	noname	0.0000
3002	C957    -6.5250   -16.1740    14.3490	C.2	1	noname	0.0000
3003	C958    -5.0180   -16.4690    14.3810	C.3	1	noname	0.0000
3004	N259    -4.1970   -15.4390    15.0440	N.3	1	noname	0.0000
3005	O299    -7.2710   -16.8820    13.6780	O.2	1	noname	0.0000
3006	C959    -4.7880   -17.8240    15.0550	C.3	1	noname	0.0000
3007	O300    -5.0770   -17.7290    16.4400	O.3	1	noname	0.0000
3008	H1483    -3.6740   -15.7290    15.8580	H	1	noname	0.0000
3009	H1484    -4.6960   -16.5480    13.3430	H	1	noname	0.0000
3010	H1485    -5.4280   -18.5750    14.5930	H	1	noname	0.0000
3011	H1486    -3.7470   -18.1200    14.9230	H	1	noname	0.0000
3012	H1487    -5.0760   -18.6130    16.8130	H	1	noname	0.0000
3013	C960    -8.6500   -14.0120    13.5500	C.2	1	noname	0.0000
3014	C961    -8.3680   -14.6190    14.9260	C.3	1	noname	0.0000
3015	N260    -6.9900   -15.1280    15.0520	N.3	1	noname	0.0000
3016	O301    -9.8110   -13.9540    13.1550	O.2	1	noname	0.0000
3017	C962    -8.7180   -13.6230    16.0500	C.3	1	noname	0.0000
3018	C963    -7.8600   -12.3460    16.0340	C.3	1	noname	0.0000
3019	C964    -8.3540   -11.2980    17.0370	C.3	1	noname	0.0000
3020	C965    -6.4580    -9.7860    17.6890	C.2	1	noname	0.0000
3021	N261    -7.5450   -10.0630    16.9940	N.3	1	noname	0.0000
3022	N262    -5.8800   -10.6470    18.4770	N.3	1	noname	0.0000
3023	N263    -5.9320    -8.6040    17.6420	N.2	1	noname	0.0000
3024	H1488    -6.3190   -14.6100    15.6000	H	1	noname	0.0000
3025	H1489    -9.0480   -15.4670    15.0050	H	1	noname	0.0000
3026	H1490    -8.6030   -14.1180    17.0140	H	1	noname	0.0000
3027	H1491    -9.7650   -13.3410    15.9440	H	1	noname	0.0000
3028	H1492    -6.8400   -12.6270    16.2970	H	1	noname	0.0000
3029	H1493    -7.8700   -11.8970    15.0410	H	1	noname	0.0000
3030	H1494    -8.3600   -11.7170    18.0430	H	1	noname	0.0000
3031	H1495    -9.3800   -11.0340    16.7830	H	1	noname	0.0000
3032	H1496    -7.9820    -9.2580    16.5690	H	1	noname	0.0000
3033	H1497    -6.3730   -11.5020    18.6920	H	1	noname	0.0000
3034	H1498    -5.1810   -10.2700    19.1020	H	1	noname	0.0000
3035	H1499    -5.6240    -8.2080    18.5180	H	1	noname	0.0000
3036	H1500    -6.3890    -7.9280    17.0470	H	1	noname	0.0000
3037	C966    -7.6730   -14.3750    10.5450	C.2	1	noname	0.0000
3038	C967    -7.7220   -13.1440    11.4480	C.3	1	noname	0.0000
3039	N264    -7.6160   -13.5590    12.8400	N.3	1	noname	0.0000
3040	O302    -6.8890   -15.2930    10.7640	O.2	1	noname	0.0000
3041	C968    -6.6010   -12.1610    11.0910	C.3	1	noname	0.0000
3042	C969    -6.6990   -10.8340    11.8160	C.2	1	noname	0.0000
3043	C970    -7.4980    -9.8070    11.2850	C.2	1	noname	0.0000
3044	C971    -6.0070   -10.6270    13.0240	C.2	1	noname	0.0000
3045	C972    -7.6010    -8.5770    11.9560	C.2	1	noname	0.0000
3046	C973    -6.1150    -9.3990    13.6990	C.2	1	noname	0.0000
3047	C974    -6.9060    -8.3730    13.1560	C.2	1	noname	0.0000
3048	H1501    -6.6840   -13.6920    13.2060	H	1	noname	0.0000
3049	H1502    -8.6750   -12.6380    11.2950	H	1	noname	0.0000
3050	H1503    -6.6340   -11.9680    10.0190	H	1	noname	0.0000
3051	H1504    -5.6380   -12.6230    11.3070	H	1	noname	0.0000
3052	H1505    -8.0440    -9.9620    10.3660	H	1	noname	0.0000
3053	H1506    -5.3860   -11.4110    13.4330	H	1	noname	0.0000
3054	H1507    -8.2260    -7.7900    11.5610	H	1	noname	0.0000
3055	H1508    -5.5920    -9.2310    14.6290	H	1	noname	0.0000
3056	H1509    -6.9850    -7.4210    13.6600	H	1	noname	0.0000
3057	C975    -8.9250   -14.8790     7.1460	C.2	1	noname	0.0000
3058	C976    -8.4860   -15.4400     8.4890	C.3	1	noname	0.0000
3059	N265    -8.4940   -14.3880     9.5030	N.3	1	noname	0.0000
3060	O303    -9.8500   -14.0700     7.0750	O.2	1	noname	0.0000
3061	C977    -9.3780   -16.6110     8.9160	C.3	1	noname	0.0000
3062	O304   -10.6750   -16.1580     9.2510	O.3	1	noname	0.0000
3063	H1510    -9.1690   -13.6430     9.4090	H	1	noname	0.0000
3064	H1511    -7.4700   -15.8200     8.3800	H	1	noname	0.0000
3065	H1512    -9.4390   -17.3410     8.1090	H	1	noname	0.0000
3066	H1513    -8.9350   -17.0910     9.7880	H	1	noname	0.0000
3067	H1514   -10.5620   -15.4020     9.8300	H	1	noname	0.0000
3068	C978    -9.1880   -16.2340     4.0430	C.2	1	noname	0.0000
3069	C979    -8.6240   -14.9920     4.7140	C.3	1	noname	0.0000
3070	N266    -8.2410   -15.2930     6.0850	N.3	1	noname	0.0000
3071	O305    -8.7990   -17.3550     4.3720	O.2	1	noname	0.0000
3072	H1515    -7.5150   -15.9840     6.2120	H	1	noname	0.0000
3073	H1516    -9.3660   -14.1930     4.6930	H	1	noname	0.0000
3074	H1517    -7.7580   -14.6560     4.1440	H	1	noname	0.0000
3075	C980   -11.0110   -16.5890     0.8900	C.2	1	noname	0.0000
3076	C981   -10.5830   -17.1280     2.2480	C.3	1	noname	0.0000
3077	N267   -10.1170   -16.0500     3.1160	N.3	1	noname	0.0000
3078	O306   -11.2300   -15.3860     0.7310	O.2	1	noname	0.0000
3079	C982   -11.7190   -17.9100     2.9170	C.3	1	noname	0.0000
3080	O307   -12.8700   -17.1130     3.0770	O.3	1	noname	0.0000
3081	H1518   -10.4030   -15.1060     2.8980	H	1	noname	0.0000
3082	H1519    -9.7570   -17.8180     2.0760	H	1	noname	0.0000
3083	H1520   -11.9730   -18.7720     2.3010	H	1	noname	0.0000
3084	H1521   -11.3900   -18.2720     3.8910	H	1	noname	0.0000
3085	H1522   -12.6940   -16.4600     3.7580	H	1	noname	0.0000
3086	C983   -10.6110   -17.5010    -2.5140	C.2	1	noname	0.0000
3087	C984   -11.6160   -17.1620    -1.4240	C.3	1	noname	0.0000
3088	N268   -11.1530   -17.4870    -0.0800	N.3	1	noname	0.0000
3089	O308    -9.4540   -17.8220    -2.2500	O.2	1	noname	0.0000
3090	H1523   -10.8680   -18.4400     0.0950	H	1	noname	0.0000
3091	H1524   -12.5450   -17.6960    -1.6250	H	1	noname	0.0000
3092	H1525   -11.8210   -16.0950    -1.5070	H	1	noname	0.0000
3093	C985   -11.0940   -17.2130    -6.1800	C.2	1	noname	0.0000
3094	C986   -10.3180   -17.7110    -4.9640	C.3	1	noname	0.0000
3095	N269   -11.0930   -17.4570    -3.7500	N.3	1	noname	0.0000
3096	O309   -12.3240   -17.1320    -6.1420	O.2	1	noname	0.0000
3097	C987   -10.0230   -19.2080    -5.1280	C.3	1	noname	0.0000
3098	O310   -11.2210   -19.9510    -5.2680	O.3	1	noname	0.0000
3099	H1526   -12.0210   -17.0780    -3.8760	H	1	noname	0.0000
3100	H1527    -9.3710   -17.1750    -4.9050	H	1	noname	0.0000
3101	H1528    -9.4030   -19.3580    -6.0120	H	1	noname	0.0000
3102	H1529    -9.4730   -19.5700    -4.2600	H	1	noname	0.0000
3103	H1530   -11.9570   -19.3360    -5.2500	H	1	noname	0.0000
3104	C988   -11.4180   -14.9890    -8.3320	C.2	1	noname	0.0000
3105	C989   -11.0160   -16.4470    -8.5010	C.3	1	noname	0.0000
3106	N270   -10.3980   -16.9400    -7.2790	N.3	1	noname	0.0000
3107	O311   -10.5610   -14.1130    -8.3940	O.2	1	noname	0.0000
3108	H1531    -9.3910   -16.9070    -7.2040	H	1	noname	0.0000
3109	H1532   -10.2990   -16.5170    -9.3190	H	1	noname	0.0000
3110	H1533   -11.8920   -17.0460    -8.7510	H	1	noname	0.0000
3111	C990   -13.7080   -12.9510    -6.6730	C.2	1	noname	0.0000
3112	C991   -13.2660   -13.3680    -8.0650	C.3	1	noname	0.0000
3113	N271   -12.7090   -14.7280    -8.1400	N.3	1	noname	0.0000
3114	O312   -13.8250   -11.7540    -6.4380	O.2	1	noname	0.0000
3115	C992   -14.4650   -13.2180    -9.0120	C.3	1	noname	0.0000
3116	C993   -14.0020   -13.2550   -10.4680	C.3	1	noname	0.0000
3117	O313   -15.3860   -14.2750    -8.8350	O.3	1	noname	0.0000
3118	H1534   -13.3640   -15.4950    -8.1010	H	1	noname	0.0000
3119	H1535   -12.5120   -12.6450    -8.3760	H	1	noname	0.0000
3120	H1536   -14.9650   -12.2660    -8.8320	H	1	noname	0.0000
3121	H1537   -15.9280   -14.1200    -8.0580	H	1	noname	0.0000
3122	H1538   -14.8690   -13.1540   -11.1210	H	1	noname	0.0000
3123	H1539   -13.4920   -14.1930   -10.6880	H	1	noname	0.0000
3124	H1540   -13.3350   -12.4120   -10.6440	H	1	noname	0.0000
3125	C994   -13.7450   -14.0020    -3.2960	C.2	1	noname	0.0000
3126	C995   -14.6180   -13.5870    -4.4780	C.3	1	noname	0.0000
3127	N272   -13.9600   -13.8820    -5.7530	N.3	1	noname	0.0000
3128	O314   -13.3110   -15.1510    -3.1820	O.2	1	noname	0.0000
3129	C996   -16.0050   -14.2430    -4.4130	C.3	1	noname	0.0000
3130	C997   -16.9770   -13.6320    -5.4300	C.2	1	noname	0.0000
3131	O315   -17.7520   -12.7110    -5.0570	O.2	1	noname	0.0000
3132	O316   -16.9440   -14.0640    -6.6030	O.3	1	noname	0.0000
3133	H1541   -13.7830   -14.8510    -5.9760	H	1	noname	0.0000
3134	H1542   -14.7810   -12.5130    -4.3940	H	1	noname	0.0000
3135	H1543   -16.4130   -14.1020    -3.4120	H	1	noname	0.0000
3136	H1544   -15.9120   -15.3140    -4.5920	H	1	noname	0.0000
3137	C998   -13.2530   -12.5980     0.0060	C.2	1	noname	0.0000
3138	C999   -12.6320   -13.1770    -1.2550	C.3	1	noname	0.0000
3139	N273   -13.5180   -13.0440    -2.3990	N.3	1	noname	0.0000
3140	O317   -14.0770   -11.6810    -0.0410	O.2	1	noname	0.0000
3141	C1000   -11.2960   -12.4960    -1.5500	C.3	1	noname	0.0000
3142	C1001   -10.6190   -12.9870    -2.8130	C.2	1	noname	0.0000
3143	C1002    -9.7260   -14.0730    -2.7590	C.2	1	noname	0.0000
3144	C1003   -10.9020   -12.3710    -4.0460	C.2	1	noname	0.0000
3145	C1004    -9.0950   -14.5220    -3.9310	C.2	1	noname	0.0000
3146	C1005   -10.2880   -12.8340    -5.2200	C.2	1	noname	0.0000
3147	C1006    -9.3830   -13.9060    -5.1600	C.2	1	noname	0.0000
3148	H1545   -13.8660   -12.1160    -2.5940	H	1	noname	0.0000
3149	H1546   -12.4460   -14.2360    -1.0720	H	1	noname	0.0000
3150	H1547   -11.4520   -11.4200    -1.6320	H	1	noname	0.0000
3151	H1548   -10.6410   -12.6730    -0.6970	H	1	noname	0.0000
3152	H1549    -9.5250   -14.5600    -1.8170	H	1	noname	0.0000
3153	H1550   -11.6030   -11.5510    -4.0980	H	1	noname	0.0000
3154	H1551    -8.4030   -15.3500    -3.8930	H	1	noname	0.0000
3155	H1552   -10.5160   -12.3740    -6.1700	H	1	noname	0.0000
3156	H1553    -8.9210   -14.2670    -6.0670	H	1	noname	0.0000
3157	C1007   -12.1100   -12.5060     3.4410	C.2	1	noname	0.0000
3158	C1008   -13.2690   -12.6110     2.4580	C.3	1	noname	0.0000
3159	N274   -12.8300   -13.1090     1.1570	N.3	1	noname	0.0000
3160	O318   -11.1920   -13.3250     3.4310	O.2	1	noname	0.0000
3161	C1009   -14.4150   -13.4400     3.0590	C.3	1	noname	0.0000
3162	C1010   -15.5570   -13.7380     2.0870	C.3	1	noname	0.0000
3163	O319   -13.9560   -14.6810     3.5180	O.3	1	noname	0.0000
3164	H1554   -12.1440   -13.8500     1.1320	H	1	noname	0.0000
3165	H1555   -13.6530   -11.6010     2.3160	H	1	noname	0.0000
3166	H1556   -14.8190   -12.8890     3.9080	H	1	noname	0.0000
3167	H1557   -13.7530   -15.2150     2.7470	H	1	noname	0.0000
3168	H1558   -15.8800   -12.8160     1.6050	H	1	noname	0.0000
3169	H1559   -15.2320   -14.4420     1.3200	H	1	noname	0.0000
3170	H1560   -16.3950   -14.1710     2.6330	H	1	noname	0.0000
3171	C1011   -12.4040   -11.5790     6.6940	C.2	1	noname	0.0000
3172	C1012   -11.4280   -11.3770     5.5410	C.3	1	noname	0.0000
3173	N275   -12.1830   -11.4980     4.3030	N.3	1	noname	0.0000
3174	O320   -13.4390   -10.9190     6.7520	O.2	1	noname	0.0000
3175	C1013   -10.7700    -9.9910     5.5960	C.3	1	noname	0.0000
3176	C1014   -10.0730    -9.6430     6.9210	C.3	1	noname	0.0000
3177	C1015    -8.8810   -10.5600     7.1730	C.3	1	noname	0.0000
3178	C1016    -9.5420    -8.2140     6.8710	C.3	1	noname	0.0000
3179	H1561   -12.9460   -10.8460     4.1870	H	1	noname	0.0000
3180	H1562   -10.6530   -12.1430     5.5810	H	1	noname	0.0000
3181	H1563   -10.0270    -9.9400     4.8000	H	1	noname	0.0000
3182	H1564   -11.5300    -9.2350     5.3970	H	1	noname	0.0000
3183	H1565   -10.7750    -9.7210     7.7520	H	1	noname	0.0000
3184	H1566    -8.2340   -10.5380     6.2960	H	1	noname	0.0000
3185	H1567    -9.2190   -11.5800     7.3520	H	1	noname	0.0000
3186	H1568    -8.3220   -10.2190     8.0450	H	1	noname	0.0000
3187	H1569    -8.7820    -8.1220     6.0960	H	1	noname	0.0000
3188	H1570   -10.3570    -7.5250     6.6480	H	1	noname	0.0000
3189	H1571    -9.1150    -7.9520     7.8390	H	1	noname	0.0000
3190	C1017   -11.9810   -12.4470    10.0690	C.2	1	noname	0.0000
3191	C1018   -12.8480   -12.6900     8.8430	C.3	1	noname	0.0000
3192	N276   -12.0760   -12.4680     7.6210	N.3	1	noname	0.0000
3193	O321   -10.8800   -12.9860    10.1700	O.2	1	noname	0.0000
3194	C1019   -13.4690   -14.0910     8.8570	C.3	1	noname	0.0000
3195	C1020   -14.2030   -14.4130    10.1580	C.3	1	noname	0.0000
3196	O322   -14.4340   -14.1920     7.8310	O.3	1	noname	0.0000
3197	H1572   -11.2190   -12.9880     7.5020	H	1	noname	0.0000
3198	H1573   -13.6740   -11.9790     8.8770	H	1	noname	0.0000
3199	H1574   -12.6940   -14.8390     8.6860	H	1	noname	0.0000
3200	H1575   -13.9600   -14.1080     7.0010	H	1	noname	0.0000
3201	H1576   -14.9660   -13.6600    10.3540	H	1	noname	0.0000
3202	H1577   -13.4990   -14.4420    10.9900	H	1	noname	0.0000
3203	H1578   -14.6580   -15.4000    10.0740	H	1	noname	0.0000
3204	C1021   -12.9910   -12.2920    13.2720	C.2	1	noname	0.0000
3205	C1022   -12.0150   -11.5270    12.3790	C.3	1	noname	0.0000
3206	N277   -12.5180   -11.6770    11.0130	N.3	1	noname	0.0000
3207	O323   -14.1540   -11.9110    13.3730	O.2	1	noname	0.0000
3208	C1023   -11.9090   -10.0400    12.7910	C.3	1	noname	0.0000
3209	C1024   -11.2090    -9.1930    11.7030	C.3	1	noname	0.0000
3210	C1025   -11.1730    -9.9510    14.1420	C.3	1	noname	0.0000
3211	C1026   -11.1400    -7.6940    12.0180	C.3	1	noname	0.0000
3212	H1579   -13.4270   -11.2780    10.8270	H	1	noname	0.0000
3213	H1580   -11.0230   -11.9720    12.4540	H	1	noname	0.0000
3214	H1581   -12.9140    -9.6420    12.9270	H	1	noname	0.0000
3215	H1582   -11.7560    -9.2800    10.7640	H	1	noname	0.0000
3216	H1583   -10.2010    -9.5760    11.5420	H	1	noname	0.0000
3217	H1584   -10.1440   -10.2950    14.0370	H	1	noname	0.0000
3218	H1585   -11.6820   -10.5470    14.8990	H	1	noname	0.0000
3219	H1586   -11.1570    -8.9210    14.4990	H	1	noname	0.0000
3220	H1587   -12.1360    -7.3200    12.2530	H	1	noname	0.0000
3221	H1588   -10.7580    -7.1610    11.1480	H	1	noname	0.0000
3222	H1589   -10.4720    -7.5090    12.8590	H	1	noname	0.0000
3223	C1027   -13.9220   -13.7440    15.9550	C.2	1	noname	0.0000
3224	C1028   -13.4710   -14.3000    14.6030	C.3	1	noname	0.0000
3225	N278   -12.5640   -13.4080    13.8630	N.3	1	noname	0.0000
3226	O324   -15.0220   -14.0670    16.3910	O.2	1	noname	0.0000
3227	C1029   -12.8250   -15.6720    14.7980	C.3	1	noname	0.0000
3228	O325   -11.6120   -15.5620    15.5160	O.3	1	noname	0.0000
3229	H1590   -11.6070   -13.6990    13.7260	H	1	noname	0.0000
3230	H1591   -14.3740   -14.4440    14.0100	H	1	noname	0.0000
3231	H1592   -12.6250   -16.1140    13.8220	H	1	noname	0.0000
3232	H1593   -13.5130   -16.3190    15.3430	H	1	noname	0.0000
3233	H1594   -11.2580   -16.4440    15.6540	H	1	noname	0.0000
3234	C1030   -12.6540   -10.9260    17.9190	C.2	1	noname	0.0000
3235	C1031   -13.3490   -12.2840    17.8840	C.3	1	noname	0.0000
3236	N279   -13.0830   -12.9270    16.5950	N.3	1	noname	0.0000
3237	O326   -11.4680   -10.8460    18.2560	O.2	1	noname	0.0000
3238	C1032   -12.8400   -13.1860    19.0160	C.3	1	noname	0.0000
3239	O327   -13.0280   -12.5840    20.2820	O.3	1	noname	0.0000
3240	H1595   -12.1960   -12.7400    16.1510	H	1	noname	0.0000
3241	H1596   -14.4210   -12.1380    18.0110	H	1	noname	0.0000
3242	H1597   -11.7800   -13.3910    18.8710	H	1	noname	0.0000
3243	H1598   -13.3830   -14.1310    18.9900	H	1	noname	0.0000
3244	H1599   -12.7130   -11.6770    20.2550	H	1	noname	0.0000
3245	C1033   -12.2460    -8.0000    18.7370	C.2	1	noname	0.0000
3246	C1034   -12.8820    -8.5070    17.4370	C.3	1	noname	0.0000
3247	N280   -13.3880    -9.8740    17.5570	N.3	1	noname	0.0000
3248	O328   -12.8470    -8.1340    19.8020	O.2	1	noname	0.0000
3249	C1035   -14.0610    -7.6090    17.0180	C.3	1	noname	0.0000
3250	C1036   -13.6860    -6.1480    16.7230	C.3	1	noname	0.0000
3251	C1037   -12.7380    -6.0710    15.5300	C.3	1	noname	0.0000
3252	C1038   -14.9520    -5.3690    16.3760	C.3	1	noname	0.0000
3253	H1600   -14.3470   -10.0320    17.2820	H	1	noname	0.0000
3254	H1601   -12.1190    -8.5020    16.6590	H	1	noname	0.0000
3255	H1602   -14.8090    -7.6220    17.8110	H	1	noname	0.0000
3256	H1603   -14.5210    -8.0330    16.1260	H	1	noname	0.0000
3257	H1604   -13.2150    -5.6900    17.5930	H	1	noname	0.0000
3258	H1605   -13.1980    -6.5490    14.6650	H	1	noname	0.0000
3259	H1606   -11.8030    -6.5820    15.7600	H	1	noname	0.0000
3260	H1607   -12.5090    -5.0270    15.3180	H	1	noname	0.0000
3261	H1608   -15.5110    -5.9070    15.6110	H	1	noname	0.0000
3262	H1609   -15.5750    -5.2730    17.2650	H	1	noname	0.0000
3263	H1610   -14.7040    -4.3740    16.0060	H	1	noname	0.0000
3264	C1039   -10.2570    -5.2240    19.5640	C.2	1	noname	0.0000
3265	C1040   -10.3770    -6.7460    19.7690	C.3	1	noname	0.0000
3266	N281   -11.0620    -7.3940    18.6460	N.3	1	noname	0.0000
3267	O329   -10.2810    -4.7660    18.4190	O.2	1	noname	0.0000
3268	C1041    -8.9890    -7.3670    19.9650	C.3	1	noname	0.0000
3269	C1042    -8.9860    -8.8760    20.2130	C.3	1	noname	0.0000
3270	C1043    -9.8080    -9.2610    21.4350	C.2	1	noname	0.0000
3271	O330    -9.7050    -8.6990    22.5120	O.2	1	noname	0.0000
3272	N282   -10.6670   -10.2460    21.3030	N.3	1	noname	0.0000
3273	H1611   -10.5900    -7.3680    17.7530	H	1	noname	0.0000
3274	H1612   -10.9520    -6.9160    20.6790	H	1	noname	0.0000
3275	H1613    -8.5390    -6.9060    20.8430	H	1	noname	0.0000
3276	H1614    -8.3730    -7.1500    19.0930	H	1	noname	0.0000
3277	H1615    -7.9590    -9.2020    20.3780	H	1	noname	0.0000
3278	H1616    -9.3660    -9.3880    19.3290	H	1	noname	0.0000
3279	H1617   -10.8450   -10.6030    20.3750	H	1	noname	0.0000
3280	H1618   -11.2460   -10.4280    22.1100	H	1	noname	0.0000
3281	C1044    -8.8060    -2.5340    19.5750	C.2	1	noname	0.0000
3282	C1045    -9.9450    -2.9620    20.5110	C.3	1	noname	0.0000
3283	N283   -10.0940    -4.4160    20.6320	N.3	1	noname	0.0000
3284	O331    -8.9440    -1.5790    18.8110	O.2	1	noname	0.0000
3285	C1046    -9.6990    -2.4600    21.9380	C.3	1	noname	0.0000
3286	C1047   -10.3690    -3.5180    22.8100	C.3	1	noname	0.0000
3287	C1048   -10.1100    -4.8070    22.0370	C.3	1	noname	0.0000
3288	H1619   -10.8810    -2.5460    20.1380	H	1	noname	0.0000
3289	H1620   -10.1320    -1.4730    22.0970	H	1	noname	0.0000
3290	H1621    -8.6310    -2.4450    22.1560	H	1	noname	0.0000
3291	H1622   -11.4410    -3.3260    22.8590	H	1	noname	0.0000
3292	H1623    -9.9380    -3.5540    23.8110	H	1	noname	0.0000
3293	H1624   -10.8950    -5.5310    22.2570	H	1	noname	0.0000
3294	H1625    -9.1360    -5.2110    22.3130	H	1	noname	0.0000
3295	C1049    -6.7550    -3.2730    17.2290	C.2	1	noname	0.0000
3296	C1050    -6.5370    -2.9680    18.7190	C.3	1	noname	0.0000
3297	N284    -7.6880    -3.2640    19.5710	N.3	1	noname	0.0000
3298	O332    -5.8930    -2.9190    16.4180	O.2	1	noname	0.0000
3299	C1051    -5.2660    -3.6600    19.2450	C.3	1	noname	0.0000
3300	C1052    -5.1880    -5.1870    19.0510	C.3	1	noname	0.0000
3301	C1053    -5.9100    -6.0240    20.1140	C.2	1	noname	0.0000
3302	O333    -5.7240    -7.2670    20.0490	O.2	1	noname	0.0000
3303	O334    -6.6400    -5.4330    20.9390	O.3	1	noname	0.0000
3304	H1626    -7.5980    -4.0310    20.2230	H	1	noname	0.0000
3305	H1627    -6.3690    -1.8930    18.7840	H	1	noname	0.0000
3306	H1628    -5.1180    -3.4080    20.2960	H	1	noname	0.0000
3307	H1629    -4.4230    -3.2260    18.7080	H	1	noname	0.0000
3308	H1630    -5.5510    -5.4580    18.0600	H	1	noname	0.0000
3309	H1631    -4.1320    -5.4570    19.0770	H	1	noname	0.0000
3310	C1054    -8.9410    -3.0180    14.7980	C.2	1	noname	0.0000
3311	C1055    -8.2520    -4.2140    15.4860	C.3	1	noname	0.0000
3312	N285    -7.8720    -3.9090    16.8670	N.3	1	noname	0.0000
3313	O335    -9.2620    -3.0870    13.6080	O.2	1	noname	0.0000
3314	C1056    -9.1310    -5.4770    15.4440	C.3	1	noname	0.0000
3315	C1057    -8.4650    -6.7430    16.0050	C.2	1	noname	0.0000
3316	O336    -7.2160    -6.8410    15.9940	O.2	1	noname	0.0000
3317	O337    -9.1860    -7.6870    16.4030	O.3	1	noname	0.0000
3318	H1632    -8.5290    -4.1640    17.5910	H	1	noname	0.0000
3319	H1633    -7.3440    -4.4270    14.9210	H	1	noname	0.0000
3320	H1634   -10.0470    -5.2690    15.9970	H	1	noname	0.0000
3321	H1635    -9.4120    -5.6810    14.4110	H	1	noname	0.0000
3322	C1058    -8.6510    -0.1320    13.8680	C.2	1	noname	0.0000
3323	C1059    -9.6040    -0.6390    14.9590	C.3	1	noname	0.0000
3324	N286    -9.1420    -1.9080    15.5180	N.3	1	noname	0.0000
3325	O338    -7.4970     0.2270    14.1300	O.2	1	noname	0.0000
3326	C1060    -9.7310     0.3920    16.0820	C.3	1	noname	0.0000
3327	C1061   -10.1100     1.7660    15.5730	C.2	1	noname	0.0000
3328	C1062    -9.1890     2.8270    15.6030	C.2	1	noname	0.0000
3329	C1063   -11.3970     1.9800    15.0610	C.2	1	noname	0.0000
3330	C1064    -9.5730     4.1010    15.1500	C.2	1	noname	0.0000
3331	C1065   -11.7680     3.2440    14.5730	C.2	1	noname	0.0000
3332	C1066   -10.8540     4.3090    14.6150	C.2	1	noname	0.0000
3333	H1636    -8.9050    -1.9310    16.4990	H	1	noname	0.0000
3334	H1637   -10.5890    -0.7890    14.5170	H	1	noname	0.0000
3335	H1638   -10.4900     0.0560    16.7890	H	1	noname	0.0000
3336	H1639    -8.7850     0.4560    16.6200	H	1	noname	0.0000
3337	H1640    -8.2040     2.6750    16.0190	H	1	noname	0.0000
3338	H1641   -12.0940     1.1560    15.0540	H	1	noname	0.0000
3339	H1642    -8.9010     4.9370    15.2770	H	1	noname	0.0000
3340	H1643   -12.7680     3.4100    14.2010	H	1	noname	0.0000
3341	H1644   -11.1550     5.2940    14.2900	H	1	noname	0.0000
3342	C1067    -9.2330     0.3090    10.1970	C.2	1	noname	0.0000
3343	C1068    -8.3440     0.1790    11.4420	C.3	1	noname	0.0000
3344	N287    -9.1330    -0.1290    12.6260	N.3	1	noname	0.0000
3345	O339   -10.4090    -0.0580    10.1920	O.2	1	noname	0.0000
3346	C1069    -7.3330    -0.9600    11.2330	C.3	1	noname	0.0000
3347	H1645   -10.0960    -0.3990    12.4840	H	1	noname	0.0000
3348	H1646    -7.8090     1.1160    11.5900	H	1	noname	0.0000
3349	H1647    -6.6160    -0.9890    12.0540	H	1	noname	0.0000
3350	H1648    -6.7880    -0.8250    10.2990	H	1	noname	0.0000
3351	H1649    -7.8660    -1.9100    11.1950	H	1	noname	0.0000
3352	C1070    -8.5090    -0.6820     7.1520	C.2	1	noname	0.0000
3353	C1071    -9.1730     0.5470     7.7590	C.3	1	noname	0.0000
3354	N288    -8.6350     0.7750     9.1030	N.3	1	noname	0.0000
3355	O340    -7.2880    -0.8220     7.2120	O.2	1	noname	0.0000
3356	C1072    -9.0000     1.7720     6.8600	C.3	1	noname	0.0000
3357	C1073    -9.7490     1.6230     5.5370	C.3	1	noname	0.0000
3358	O341    -9.5500     2.8890     7.5210	O.3	1	noname	0.0000
3359	H1650    -7.6580     1.0210     9.1730	H	1	noname	0.0000
3360	H1651   -10.2440     0.3550     7.8310	H	1	noname	0.0000
3361	H1652    -7.9420     1.9490     6.6700	H	1	noname	0.0000
3362	H1653    -9.0890     2.9630     8.3600	H	1	noname	0.0000
3363	H1654    -9.6650     2.5490     4.9680	H	1	noname	0.0000
3364	H1655    -9.3290     0.8080     4.9480	H	1	noname	0.0000
3365	H1656   -10.8050     1.4300     5.7260	H	1	noname	0.0000
3366	C1074    -8.9190    -2.6990     4.4300	C.2	1	noname	0.0000
3367	C1075    -8.8370    -2.8010     5.9450	C.3	1	noname	0.0000
3368	N289    -9.3080    -1.5710     6.5710	N.3	1	noname	0.0000
3369	O342    -9.9640    -2.3220     3.9020	O.2	1	noname	0.0000
3370	C1076    -9.6430    -3.9950     6.4520	C.3	1	noname	0.0000
3371	C1077    -9.4070    -4.2830     7.9160	C.2	1	noname	0.0000
3372	C1078    -8.4530    -5.2470     8.2880	C.2	1	noname	0.0000
3373	C1079   -10.1060    -3.5610     8.9030	C.2	1	noname	0.0000
3374	C1080    -8.2280    -5.5170     9.6490	C.2	1	noname	0.0000
3375	C1081    -9.8400    -3.7960    10.2640	C.2	1	noname	0.0000
3376	C1082    -8.9150    -4.7890    10.6360	C.2	1	noname	0.0000
3377	O343    -8.6330    -5.0190    11.9400	O.3	1	noname	0.0000
3378	H1657   -10.3040    -1.4010     6.5840	H	1	noname	0.0000
3379	H1658    -7.7960    -2.9630     6.2260	H	1	noname	0.0000
3380	H1659    -9.3730    -4.8770     5.8710	H	1	noname	0.0000
3381	H1660   -10.7040    -3.8030     6.2880	H	1	noname	0.0000
3382	H1661    -7.9020    -5.7820     7.5290	H	1	noname	0.0000
3383	H1662   -10.8250    -2.8050     8.6220	H	1	noname	0.0000
3384	H1663    -7.5220    -6.2740     9.9540	H	1	noname	0.0000
3385	H1664   -10.3280    -3.2110    11.0290	H	1	noname	0.0000
3386	H1665    -9.0750    -4.3920    12.5170	H	1	noname	0.0000
3387	C1083    -7.5110    -4.4270     1.7100	C.2	1	noname	0.0000
3388	C1084    -7.7950    -3.0420     2.2680	C.3	1	noname	0.0000
3389	N290    -7.8560    -3.0840     3.7300	N.3	1	noname	0.0000
3390	O344    -6.6280    -5.1190     2.2140	O.2	1	noname	0.0000
3391	C1085    -6.7380    -2.0400     1.7910	C.3	1	noname	0.0000
3392	C1086    -6.9830    -0.6200     2.2520	C.2	1	noname	0.0000
3393	C1087    -7.7520     0.2530     1.4580	C.2	1	noname	0.0000
3394	C1088    -6.4440    -0.1730     3.4720	C.2	1	noname	0.0000
3395	C1089    -7.9710     1.5790     1.8760	C.2	1	noname	0.0000
3396	C1090    -6.6520     1.1530     3.8850	C.2	1	noname	0.0000
3397	C1091    -7.4020     2.0360     3.0820	C.2	1	noname	0.0000
3398	O345    -7.5610     3.3260     3.4710	O.3	1	noname	0.0000
3399	H1666    -7.0570    -3.4440     4.2310	H	1	noname	0.0000
3400	H1667    -8.7510    -2.7050     1.8670	H	1	noname	0.0000
3401	H1668    -6.7210    -2.0510     0.7020	H	1	noname	0.0000
3402	H1669    -5.7520    -2.3570     2.1310	H	1	noname	0.0000
3403	H1670    -8.1730    -0.0940     0.5260	H	1	noname	0.0000
3404	H1671    -5.8580    -0.8430     4.0850	H	1	noname	0.0000
3405	H1672    -8.5700     2.2500     1.2790	H	1	noname	0.0000
3406	H1673    -6.2220     1.5040     4.8120	H	1	noname	0.0000
3407	H1674    -7.0310     3.5110     4.2490	H	1	noname	0.0000
3408	C1092    -6.9470    -5.3540    -1.3610	C.2	1	noname	0.0000
3409	C1093    -7.7780    -5.9050    -0.2010	C.3	1	noname	0.0000
3410	N291    -8.2220    -4.8130     0.6550	N.3	1	noname	0.0000
3411	O346    -7.1670    -4.2290    -1.8110	O.2	1	noname	0.0000
3412	C1094    -8.9540    -6.7440    -0.6930	C.3	1	noname	0.0000
3413	S8   -10.1500    -5.8580    -1.7160	S.3	1	noname	0.0000
3414	H1675    -8.9170    -4.1810     0.2840	H	1	noname	0.0000
3415	H1676    -7.1420    -6.5740     0.3800	H	1	noname	0.0000
3416	H1677    -8.5440    -7.5670    -1.2790	H	1	noname	0.0000
3417	H1678    -9.4690    -7.1730     0.1670	H	1	noname	0.0000
3418	C1095    -5.0390    -7.0490    -3.8940	C.2	1	noname	0.0000
3419	C1096    -5.1720    -5.8240    -3.0020	C.3	1	noname	0.0000
3420	N292    -6.0120    -6.1520    -1.8580	N.3	1	noname	0.0000
3421	O347    -4.7560    -8.1350    -3.3910	O.2	1	noname	0.0000
3422	C1097    -3.8020    -5.3840    -2.4890	C.3	1	noname	0.0000
3423	C1098    -2.7770    -5.0510    -3.5940	C.3	1	noname	0.0000
3424	C1099    -1.5640    -5.9860    -3.6260	C.2	1	noname	0.0000
3425	O348    -1.1770    -6.6180    -2.6560	O.2	1	noname	0.0000
3426	N293    -0.8600    -6.0720    -4.7200	N.3	1	noname	0.0000
3427	H1679    -5.8360    -7.0330    -1.3960	H	1	noname	0.0000
3428	H1680    -5.6180    -5.0090    -3.5720	H	1	noname	0.0000
3429	H1681    -3.9320    -4.5130    -1.8470	H	1	noname	0.0000
3430	H1682    -3.4360    -6.2020    -1.8670	H	1	noname	0.0000
3431	H1683    -3.2590    -5.0400    -4.5720	H	1	noname	0.0000
3432	H1684    -2.4010    -4.0420    -3.4270	H	1	noname	0.0000
3433	H1685    -1.2180    -5.7500    -5.6080	H	1	noname	0.0000
3434	H1686    -0.0070    -6.6120    -4.6810	H	1	noname	0.0000
3435	C1100    -3.3170    -7.7280    -6.4780	C.2	1	noname	0.0000
3436	C1101    -4.8190    -7.8760    -6.1800	C.3	1	noname	0.0000
3437	N294    -5.2110    -6.8670    -5.2000	N.3	1	noname	0.0000
3438	O349    -2.8520    -6.6000    -6.6860	O.2	1	noname	0.0000
3439	C1102    -5.7550    -7.8130    -7.3990	C.3	1	noname	0.0000
3440	C1103    -5.2810    -6.9540    -8.5780	C.3	1	noname	0.0000
3441	C1104    -4.2250    -7.6370    -9.4250	C.2	1	noname	0.0000
3442	O350    -3.9610    -8.8190    -9.2820	O.2	1	noname	0.0000
3443	N295    -3.5770    -6.9310   -10.3140	N.3	1	noname	0.0000
3444	H1687    -5.4030    -5.9350    -5.5370	H	1	noname	0.0000
3445	H1688    -4.9750    -8.8550    -5.7270	H	1	noname	0.0000
3446	H1689    -6.7250    -7.4370    -7.0710	H	1	noname	0.0000
3447	H1690    -5.9230    -8.8290    -7.7570	H	1	noname	0.0000
3448	H1691    -6.1340    -6.7480    -9.2250	H	1	noname	0.0000
3449	H1692    -4.8800    -6.0120    -8.2060	H	1	noname	0.0000
3450	H1693    -2.8000    -7.3790   -10.7780	H	1	noname	0.0000
3451	H1694    -3.7280    -5.9460   -10.4810	H	1	noname	0.0000
3452	C1105    -0.4290    -9.0410    -7.8380	C.2	1	noname	0.0000
3453	C1106    -1.0910    -8.8270    -6.4840	C.3	1	noname	0.0000
3454	N296    -2.5630    -8.8300    -6.4510	N.3	1	noname	0.0000
3455	O351     0.7970    -8.9990    -7.9210	O.2	1	noname	0.0000
3456	C1107    -0.5060    -9.7240    -5.3940	C.3	1	noname	0.0000
3457	O352    -0.8680   -11.0820    -5.5320	O.3	1	noname	0.0000
3458	H1695    -3.0200    -9.7190    -6.3050	H	1	noname	0.0000
3459	H1696    -0.7530    -7.8180    -6.2470	H	1	noname	0.0000
3460	H1697     0.5810    -9.6560    -5.4270	H	1	noname	0.0000
3461	H1698    -0.8460    -9.3620    -4.4240	H	1	noname	0.0000
3462	H1699    -0.1690   -11.5890    -5.1120	H	1	noname	0.0000
3463	C1108    -0.2790    -7.6160   -10.5850	C.2	1	noname	0.0000
3464	C1109    -0.6600    -9.0760   -10.2620	C.3	1	noname	0.0000
3465	N297    -1.2010    -9.1840    -8.9100	N.3	1	noname	0.0000
3466	O353    -0.6920    -6.6790    -9.8960	O.2	1	noname	0.0000
3467	C1110    -1.6370    -9.7010   -11.2760	C.3	1	noname	0.0000
3468	C1111    -0.9480   -10.1960   -12.5500	C.2	1	noname	0.0000
3469	O354     0.2910   -10.0240   -12.6570	O.2	1	noname	0.0000
3470	O355    -1.6660   -10.7520   -13.4080	O.3	1	noname	0.0000
3471	H1700    -2.2060    -9.1850    -8.8060	H	1	noname	0.0000
3472	H1701     0.2570    -9.6640   -10.2850	H	1	noname	0.0000
3473	H1702    -2.4020    -8.9750   -11.5500	H	1	noname	0.0000
3474	H1703    -2.1280   -10.5570   -10.8130	H	1	noname	0.0000
3475	C1112     0.2030    -5.6230   -13.3050	C.2	1	noname	0.0000
3476	C1113     0.9640    -6.0580   -12.0450	C.3	1	noname	0.0000
3477	N298     0.5380    -7.4010   -11.6150	N.3	1	noname	0.0000
3478	O356     0.2880    -6.3170   -14.3170	O.2	1	noname	0.0000
3479	C1114     2.4770    -6.0010   -12.2740	C.3	1	noname	0.0000
3480	C1115     2.9790    -4.6070   -12.6570	C.3	1	noname	0.0000
3481	O357     3.1430    -6.3210   -11.0760	O.3	1	noname	0.0000
3482	H1704     0.7510    -8.1970   -12.1980	H	1	noname	0.0000
3483	H1705     0.7620    -5.3580   -11.2340	H	1	noname	0.0000
3484	H1706     2.7590    -6.7160   -13.0470	H	1	noname	0.0000
3485	H1707     2.6630    -7.0480   -10.6740	H	1	noname	0.0000
3486	H1708     4.0650    -4.6410   -12.7360	H	1	noname	0.0000
3487	H1709     2.7000    -3.8830   -11.8910	H	1	noname	0.0000
3488	H1710     2.5670    -4.3090   -13.6210	H	1	noname	0.0000
3489	C1116    -1.4390    -3.9230   -11.0810	C.2	1	noname	0.0000
3490	C1117    -0.5500    -3.4610   -12.2410	C.3	1	noname	0.0000
3491	N299    -0.4660    -4.4520   -13.3170	N.3	1	noname	0.0000
3492	O358    -2.4860    -4.5330   -11.2750	O.2	1	noname	0.0000
3493	C1118    -1.1090    -2.1970   -12.8960	C.3	1	noname	0.0000
3494	C1119    -1.9950    -2.7550   -14.0070	C.3	1	noname	0.0000
3495	C1120    -1.2410    -4.0020   -14.4640	C.3	1	noname	0.0000
3496	H1711     0.4450    -3.2360   -11.8570	H	1	noname	0.0000
3497	H1712    -1.6770    -1.5830   -12.1970	H	1	noname	0.0000
3498	H1713    -0.2940    -1.6200   -13.3340	H	1	noname	0.0000
3499	H1714    -2.9610    -3.0450   -13.5940	H	1	noname	0.0000
3500	H1715    -2.1290    -2.0390   -14.8190	H	1	noname	0.0000
3501	H1716    -1.9440    -4.7700   -14.7850	H	1	noname	0.0000
3502	H1717    -0.5640    -3.7480   -15.2810	H	1	noname	0.0000
3503	C1121    -2.8620    -2.9390    -8.3940	C.2	1	noname	0.0000
3504	C1122    -1.7580    -3.9520    -8.6570	C.3	1	noname	0.0000
3505	N300    -1.0050    -3.6140    -9.8610	N.3	1	noname	0.0000
3506	O359    -2.6690    -1.7340    -8.5490	O.2	1	noname	0.0000
3507	C1123    -0.8370    -4.0260    -7.4480	C.3	1	noname	0.0000
3508	O360     0.0990    -5.0680    -7.6180	O.3	1	noname	0.0000
3509	H1718    -0.1470    -3.0920    -9.7550	H	1	noname	0.0000
3510	H1719    -2.2200    -4.9300    -8.7860	H	1	noname	0.0000
3511	H1720    -0.3110    -3.0790    -7.3230	H	1	noname	0.0000
3512	H1721    -1.4350    -4.2150    -6.5560	H	1	noname	0.0000
3513	H1722    -0.2090    -5.6550    -8.3130	H	1	noname	0.0000
3514	C1124    -5.6560    -2.8740    -6.1750	C.2	1	noname	0.0000
3515	C1125    -5.1680    -2.6080    -7.5840	C.3	1	noname	0.0000
3516	N301    -3.9910    -3.4260    -7.8910	N.3	1	noname	0.0000
3517	O361    -5.7410    -4.0270    -5.7450	O.2	1	noname	0.0000
3518	C1126    -6.3140    -2.8780    -8.5590	C.3	1	noname	0.0000
3519	C1127    -5.9320    -2.4660    -9.9660	C.3	1	noname	0.0000
3520	O362    -6.6130    -4.2500    -8.5510	O.3	1	noname	0.0000
3521	H1723    -4.0860    -4.4280    -7.8150	H	1	noname	0.0000
3522	H1724    -4.9130    -1.5510    -7.6660	H	1	noname	0.0000
3523	H1725    -7.1930    -2.3120    -8.2510	H	1	noname	0.0000
3524	H1726    -6.8770    -4.4980    -7.6620	H	1	noname	0.0000
3525	H1727    -5.1610    -3.1240   -10.3670	H	1	noname	0.0000
3526	H1728    -5.5610    -1.4410    -9.9670	H	1	noname	0.0000
3527	H1729    -6.8070    -2.5210   -10.6130	H	1	noname	0.0000
3528	C1128    -8.1300    -1.7620    -4.1980	C.2	1	noname	0.0000
3529	C1129    -6.6090    -1.8870    -4.1380	C.3	1	noname	0.0000
3530	N302    -6.0290    -1.8110    -5.4720	N.3	1	noname	0.0000
3531	O363    -8.6770    -1.0500    -5.0400	O.2	1	noname	0.0000
3532	C1130    -5.9970    -0.8080    -3.2400	C.3	1	noname	0.0000
3533	C1131    -4.5460    -1.0630    -2.8870	C.2	1	noname	0.0000
3534	C1132    -4.2300    -1.7740    -1.7150	C.2	1	noname	0.0000
3535	C1133    -3.5140    -0.6020    -3.7270	C.2	1	noname	0.0000
3536	C1134    -2.8870    -2.0210    -1.3800	C.2	1	noname	0.0000
3537	C1135    -2.1710    -0.8610    -3.3990	C.2	1	noname	0.0000
3538	C1136    -1.8610    -1.5690    -2.2260	C.2	1	noname	0.0000
3539	H1730    -5.9990    -0.9010    -5.9100	H	1	noname	0.0000
3540	H1731    -6.3720    -2.8530    -3.6940	H	1	noname	0.0000
3541	H1732    -6.5690    -0.7550    -2.3140	H	1	noname	0.0000
3542	H1733    -6.0930     0.1580    -3.7360	H	1	noname	0.0000
3543	H1734    -5.0200    -2.1400    -1.0770	H	1	noname	0.0000
3544	H1735    -3.7540    -0.0510    -4.6240	H	1	noname	0.0000
3545	H1736    -2.6440    -2.5730    -0.4840	H	1	noname	0.0000
3546	H1737    -1.3800    -0.5140    -4.0480	H	1	noname	0.0000
3547	H1738    -0.8310    -1.7740    -1.9750	H	1	noname	0.0000
3548	C1137   -10.2590    -0.7100    -2.2610	C.2	1	noname	0.0000
3549	C1138   -10.1890    -2.0770    -2.9420	C.3	1	noname	0.0000
3550	N303    -8.8140    -2.4260    -3.2690	N.3	1	noname	0.0000
3551	O364    -9.2680    -0.1840    -1.7520	O.2	1	noname	0.0000
3552	H1739    -8.2960    -3.0000    -2.6190	H	1	noname	0.0000
3553	H1740   -10.7850    -2.0420    -3.8540	H	1	noname	0.0000
3554	H1741   -10.6130    -2.8320    -2.2790	H	1	noname	0.0000
3555	C1139   -11.4370     1.3130    -0.1360	C.2	1	noname	0.0000
3556	C1140   -11.6680     1.2080    -1.6560	C.3	1	noname	0.0000
3557	N304   -11.4540    -0.1300    -2.2120	N.3	1	noname	0.0000
3558	O365   -11.4190     2.4180     0.4010	O.2	1	noname	0.0000
3559	C1141   -13.0550     1.7280    -2.0660	C.3	1	noname	0.0000
3560	C1142   -14.2520     1.1440    -1.2990	C.3	1	noname	0.0000
3561	C1143   -14.6980    -0.2570    -1.7030	C.2	1	noname	0.0000
3562	O366   -14.0650    -1.0080    -2.4310	O.2	1	noname	0.0000
3563	N305   -15.8490    -0.6430    -1.2170	N.3	1	noname	0.0000
3564	H1742   -12.2390    -0.5980    -2.6420	H	1	noname	0.0000
3565	H1743   -10.9300     1.8640    -2.1170	H	1	noname	0.0000
3566	H1744   -13.2000     1.5760    -3.1360	H	1	noname	0.0000
3567	H1745   -13.0560     2.8040    -1.8940	H	1	noname	0.0000
3568	H1746   -15.0970     1.8100    -1.4730	H	1	noname	0.0000
3569	H1747   -14.0620     1.1590    -0.2260	H	1	noname	0.0000
3570	H1748   -16.3560    -0.0420    -0.5830	H	1	noname	0.0000
3571	H1749   -16.1940    -1.5700    -1.4210	H	1	noname	0.0000
3572	C1144   -12.4220    -0.0750     2.7490	C.2	1	noname	0.0000
3573	C1145   -11.1050     0.1110     1.9960	C.3	1	noname	0.0000
3574	N306   -11.2620     0.1820     0.5510	N.3	1	noname	0.0000
3575	O367   -13.4890     0.3720     2.3260	O.2	1	noname	0.0000
3576	H1750   -11.1950    -0.6810     0.0310	H	1	noname	0.0000
3577	H1751   -10.4390    -0.7240     2.2130	H	1	noname	0.0000
3578	H1752   -10.6300     1.0180     2.3690	H	1	noname	0.0000
3579	C1146   -13.0010    -0.3440     6.1980	C.2	1	noname	0.0000
3580	C1147   -13.4180    -0.9190     4.8540	C.3	1	noname	0.0000
3581	N307   -12.3250    -0.7350     3.8980	N.3	1	noname	0.0000
3582	O368   -12.0930    -0.8790     6.8390	O.2	1	noname	0.0000
3583	C1148   -13.7800    -2.3990     5.0000	C.3	1	noname	0.0000
3584	C1149   -14.8860    -2.6190     6.0370	C.3	1	noname	0.0000
3585	O369   -14.2140    -2.9220     3.7660	O.3	1	noname	0.0000
3586	H1753   -11.4290    -1.1440     4.1230	H	1	noname	0.0000
3587	H1754   -14.3070    -0.3970     4.5000	H	1	noname	0.0000
3588	H1755   -12.8890    -2.9490     5.3040	H	1	noname	0.0000
3589	H1756   -15.1220    -2.6320     3.6530	H	1	noname	0.0000
3590	H1757   -15.3290    -3.6050     5.8970	H	1	noname	0.0000
3591	H1758   -14.4640    -2.5650     7.0410	H	1	noname	0.0000
3592	H1759   -15.6620    -1.8610     5.9380	H	1	noname	0.0000
3593	C1150   -14.0980     0.5390     9.0410	C.2	1	noname	0.0000
3594	C1151   -13.3930     1.3470     7.9490	C.3	1	noname	0.0000
3595	N308   -13.6470     0.7390     6.6360	N.3	1	noname	0.0000
3596	O370   -15.3250     0.4740     9.0500	O.2	1	noname	0.0000
3597	C1152   -13.8350     2.8180     7.9330	C.3	1	noname	0.0000
3598	C1153   -13.3030     3.5750     9.1590	C.3	1	noname	0.0000
3599	C1154   -13.8900     4.9890     9.2350	C.3	1	noname	0.0000
3600	C1155   -13.2120     5.7750    10.3620	C.3	1	noname	0.0000
3601	N309   -14.0380     6.9230    10.8000	N.3	1	noname	0.0000
3602	H1760   -14.3720     1.1280     6.0500	H	1	noname	0.0000
3603	H1761   -12.3210     1.3180     8.1480	H	1	noname	0.0000
3604	H1762   -14.9240     2.8710     7.9090	H	1	noname	0.0000
3605	H1763   -13.4470     3.2990     7.0350	H	1	noname	0.0000
3606	H1764   -12.2170     3.6340     9.0920	H	1	noname	0.0000
3607	H1765   -13.5680     3.0390    10.0710	H	1	noname	0.0000
3608	H1766   -14.9570     4.9030     9.4390	H	1	noname	0.0000
3609	H1767   -13.7450     5.5070     8.2870	H	1	noname	0.0000
3610	H1768   -13.0800     5.1060    11.2120	H	1	noname	0.0000
3611	H1769   -12.2280     6.1040    10.0260	H	1	noname	0.0000
3612	H1770   -14.8270     6.5380    11.2980	H	1	noname	0.0000
3613	H1771   -14.3830     7.4820    10.0330	H	1	noname	0.0000
3614	H1772   -13.5610     7.4870    11.4890	H	1	noname	0.0000
3615	C1156   -13.7900     0.0160    12.3480	C.2	1	noname	0.0000
3616	C1157   -13.8630    -0.8260    11.0770	C.3	1	noname	0.0000
3617	N310   -13.3350    -0.0710     9.9430	N.3	1	noname	0.0000
3618	O371   -12.7080     0.4520    12.7350	O.2	1	noname	0.0000
3619	C1158   -13.0650    -2.1290    11.2170	C.3	1	noname	0.0000
3620	C1159   -13.4810    -3.0180    12.4030	C.3	1	noname	0.0000
3621	C1160   -14.9430    -3.4310    12.3220	C.3	1	noname	0.0000
3622	C1161   -12.6430    -4.2940    12.3810	C.3	1	noname	0.0000
3623	H1773   -12.3320     0.0300     9.8890	H	1	noname	0.0000
3624	H1774   -14.9060    -1.0800    10.8880	H	1	noname	0.0000
3625	H1775   -13.1630    -2.6960    10.2910	H	1	noname	0.0000
3626	H1776   -12.0160    -1.8660    11.3500	H	1	noname	0.0000
3627	H1777   -13.3090    -2.4990    13.3470	H	1	noname	0.0000
3628	H1778   -15.5920    -2.5590    12.4140	H	1	noname	0.0000
3629	H1779   -15.1090    -3.9310    11.3680	H	1	noname	0.0000
3630	H1780   -15.1840    -4.1010    13.1480	H	1	noname	0.0000
3631	H1781   -12.6170    -4.7220    11.3780	H	1	noname	0.0000
3632	H1782   -13.0750    -5.0300    13.0580	H	1	noname	0.0000
3633	H1783   -11.6300    -4.0710    12.7170	H	1	noname	0.0000
3634	C1162   -15.5460     0.0770    15.3930	C.2	1	noname	0.0000
3635	C1163   -15.0550     0.9680    14.2460	C.3	1	noname	0.0000
3636	N311   -14.9290     0.2060    13.0040	N.3	1	noname	0.0000
3637	O372   -16.3330    -0.8500    15.1870	O.2	1	noname	0.0000
3638	C1164   -15.9520     2.1980    14.0390	C.3	1	noname	0.0000
3639	C1165   -15.4850     3.0710    12.8580	C.3	1	noname	0.0000
3640	C1166   -16.2170     4.4120    12.7730	C.2	1	noname	0.0000
3641	O373   -15.5560     5.4060    12.3740	O.2	1	noname	0.0000
3642	O374   -17.4370     4.4270    13.0280	O.3	1	noname	0.0000
3643	H1784   -15.7780    -0.1730    12.6090	H	1	noname	0.0000
3644	H1785   -14.0750     1.3490    14.5330	H	1	noname	0.0000
3645	H1786   -15.9330     2.7950    14.9510	H	1	noname	0.0000
3646	H1787   -16.9750     1.8670    13.8600	H	1	noname	0.0000
3647	H1788   -15.6540     2.5330    11.9250	H	1	noname	0.0000
3648	H1789   -14.4130     3.2520    12.9330	H	1	noname	0.0000
3649	C1167   -16.9350     0.3880    18.2100	C.2	1	noname	0.0000
3650	C1168   -15.6400    -0.3120    17.8040	C.3	1	noname	0.0000
3651	N312   -15.1030     0.3600    16.6190	N.3	1	noname	0.0000
3652	O375   -16.9490     1.5870    18.4920	O.2	1	noname	0.0000
3653	C1169   -14.6130    -0.3810    18.9540	C.3	1	noname	0.0000
3654	C1170   -13.3050    -1.1000    18.5470	C.3	1	noname	0.0000
3655	C1171   -15.2330    -1.0660    20.1860	C.3	1	noname	0.0000
3656	C1172   -13.4590    -2.5630    18.1070	C.3	1	noname	0.0000
3657	H1790   -14.4930     1.1530    16.7590	H	1	noname	0.0000
3658	H1791   -15.8890    -1.3400    17.5390	H	1	noname	0.0000
3659	H1792   -14.3490     0.6380    19.2380	H	1	noname	0.0000
3660	H1793   -12.8310    -0.5480    17.7350	H	1	noname	0.0000
3661	H1794   -12.6170    -1.0700    19.3920	H	1	noname	0.0000
3662	H1795   -16.0190    -0.4430    20.6110	H	1	noname	0.0000
3663	H1796   -14.4710    -1.2110    20.9520	H	1	noname	0.0000
3664	H1797   -15.6570    -2.0330    19.9160	H	1	noname	0.0000
3665	H1798   -13.8850    -3.1670    18.9080	H	1	noname	0.0000
3666	H1799   -14.0950    -2.6140    17.2240	H	1	noname	0.0000
3667	H1800   -12.4780    -2.9650    17.8520	H	1	noname	0.0000
3668	C1173   -19.2360     0.2960    20.2570	C.2	1	noname	0.0000
3669	C1174   -19.3230     0.1210    18.7420	C.3	1	noname	0.0000
3670	N313   -18.0350    -0.3640    18.2500	N.3	1	noname	0.0000
3671	O376   -19.1160    -0.6880    20.9870	O.2	1	noname	0.0000
3672	C1175   -20.4310    -0.8550    18.3240	C.3	1	noname	0.0000
3673	C1176   -21.8210    -0.3150    18.6860	C.3	1	noname	0.0000
3674	C1177   -22.9030    -1.3040    18.2470	C.3	1	noname	0.0000
3675	C1178   -24.2840    -0.7470    18.5990	C.3	1	noname	0.0000
3676	N314   -25.3470    -1.7150    18.2410	N.3	1	noname	0.0000
3677	H1801   -17.9320    -1.3450    18.0310	H	1	noname	0.0000
3678	H1802   -19.5220     1.0930    18.2920	H	1	noname	0.0000
3679	H1803   -20.2730    -1.8170    18.8110	H	1	noname	0.0000
3680	H1804   -20.3810    -1.0050    17.2460	H	1	noname	0.0000
3681	H1805   -21.8910    -0.1700    19.7640	H	1	noname	0.0000
3682	H1806   -21.9780     0.6410    18.1870	H	1	noname	0.0000
3683	H1807   -22.7430    -2.2520    18.7610	H	1	noname	0.0000
3684	H1808   -22.8300    -1.4650    17.1710	H	1	noname	0.0000
3685	H1809   -24.3080    -0.5370    19.6680	H	1	noname	0.0000
3686	H1810   -24.4280     0.1960    18.0720	H	1	noname	0.0000
3687	H1811   -26.2550    -1.3530    18.4940	H	1	noname	0.0000
3688	H1812   -25.1940    -2.5830    18.7350	H	1	noname	0.0000
3689	H1813   -25.3250    -1.9100    17.2500	H	1	noname	0.0000
3690	C1179   -20.8110     1.3160    22.6440	C.2	1	noname	0.0000
3691	C1180   -19.4650     1.8560    22.1490	C.3	1	noname	0.0000
3692	N315   -19.3260     1.5430    20.7220	N.3	1	noname	0.0000
3693	O377   -21.8480     1.5860    22.0360	O.2	1	noname	0.0000
3694	C1181   -19.3210     3.3700    22.3960	C.3	1	noname	0.0000
3695	C1182   -17.9280     3.9180    22.0260	C.3	1	noname	0.0000
3696	C1183   -17.7990     5.3970    22.4250	C.3	1	noname	0.0000
3697	C1184   -16.0000     7.1260    22.5210	C.2	1	noname	0.0000
3698	N316   -16.4710     5.9580    22.0970	N.3	1	noname	0.0000
3699	N317   -16.6800     7.9480    23.2780	N.3	1	noname	0.0000
3700	N318   -14.7940     7.4970    22.1880	N.2	1	noname	0.0000
3701	H1814   -19.3740     2.2990    20.0540	H	1	noname	0.0000
3702	H1815   -18.6810     1.3410    22.7040	H	1	noname	0.0000
3703	H1816   -19.4970     3.5620    23.4550	H	1	noname	0.0000
3704	H1817   -20.0810     3.9060    21.8270	H	1	noname	0.0000
3705	H1818   -17.7670     3.8200    20.9520	H	1	noname	0.0000
3706	H1819   -17.1660     3.3420    22.5520	H	1	noname	0.0000
3707	H1820   -18.5680     5.9750    21.9130	H	1	noname	0.0000
3708	H1821   -17.9680     5.4840    23.4980	H	1	noname	0.0000
3709	H1822   -15.8510     5.3930    21.5340	H	1	noname	0.0000
3710	H1823   -17.5740     7.7130    23.6850	H	1	noname	0.0000
3711	H1824   -16.2850     8.7900    23.6730	H	1	noname	0.0000
3712	H1825   -14.4470     8.3500    22.6030	H	1	noname	0.0000
3713	H1826   -14.1670     6.8810    21.6910	H	1	noname	0.0000
3714	C1185   -22.3400     1.2320    25.4040	C.2	1	noname	0.0000
3715	C1186   -22.0060     0.1290    24.4260	C.3	1	noname	0.0000
3716	N319   -20.7910     0.5130    23.7040	N.3	1	noname	0.0000
3717	O378   -21.6120     1.4710    26.3610	O.2	1	noname	0.0000
3718	C1187   -21.8680    -1.1930    25.1860	C.3	1	noname	0.0000
3719	C1188   -21.8410    -2.3820    24.2280	C.3	1	noname	0.0000
3720	O379   -20.6760    -1.1980    25.9320	O.3	1	noname	0.0000
3721	H1827   -19.9100     0.2930    24.1460	H	1	noname	0.0000
3722	H1828   -22.8340     0.0230    23.7250	H	1	noname	0.0000
3723	H1829   -22.7160    -1.3100    25.8610	H	1	noname	0.0000
3724	H1830   -20.7100    -0.4340    26.5130	H	1	noname	0.0000
3725	H1831   -21.7500    -3.3030    24.8030	H	1	noname	0.0000
3726	H1832   -22.7640    -2.4140    23.6500	H	1	noname	0.0000
3727	H1833   -20.9880    -2.2980    23.5530	H	1	noname	0.0000
3728	C1189   -24.7150     1.9870    27.1910	C.2	1	noname	0.0000
3729	C1190   -24.1050     2.8030    26.0400	C.3	1	noname	0.0000
3730	N320   -23.4510     1.8830    25.1380	N.3	1	noname	0.0000
3731	O380   -25.6570     1.2140    26.9810	O.2	1	noname	0.0000
3732	C1191   -25.1340     3.4730    25.1430	C.3	1	noname	0.0000
3733	C1192   -25.6750     4.7800    25.6410	C.2	1	noname	0.0000
3734	O381   -25.1560     5.3480    26.6210	O.2	1	noname	0.0000
3735	O382   -26.6180     5.1730    24.9260	O.3	1	noname	0.0000
3736	H1834   -23.9500     1.6720    24.2850	H	1	noname	0.0000
3737	H1835   -23.4000     3.5420    26.4230	H	1	noname	0.0000
3738	H1836   -24.6770     3.6870    24.1770	H	1	noname	0.0000
3739	H1837   -25.9590     2.7860    24.9550	H	1	noname	0.0000
3740	C1193   -25.6120     2.3170    30.2440	C.2	1	noname	0.0000
3741	C1194   -24.6450     1.3560    29.5530	C.3	1	noname	0.0000
3742	N321   -24.1070     2.0370    28.3770	N.3	1	noname	0.0000
3743	O383   -25.2180     3.3780    30.7170	O.2	1	noname	0.0000
3744	C1195   -23.5290     0.8260    30.4730	C.3	1	noname	0.0000
3745	C1196   -23.7140    -0.6350    30.8580	C.2	1	noname	0.0000
3746	C1197   -24.3690    -0.9830    32.0550	C.2	1	noname	0.0000
3747	C1198   -23.2360    -1.6490    30.0030	C.2	1	noname	0.0000
3748	C1199   -24.5400    -2.3390    32.4020	C.2	1	noname	0.0000
3749	C1200   -23.4030    -3.0060    30.3440	C.2	1	noname	0.0000
3750	C1201   -24.0530    -3.3530    31.5470	C.2	1	noname	0.0000
3751	O384   -24.2070    -4.6620    31.8810	O.3	1	noname	0.0000
3752	H1838   -23.3640     2.7070    28.5160	H	1	noname	0.0000
3753	H1839   -25.2150     0.4880    29.2220	H	1	noname	0.0000
3754	H1840   -22.5660     0.9250    29.9730	H	1	noname	0.0000
3755	H1841   -23.4760     1.4340    31.3760	H	1	noname	0.0000
3756	H1842   -24.7210    -0.2050    32.7160	H	1	noname	0.0000
3757	H1843   -22.7300    -1.3780    29.0880	H	1	noname	0.0000
3758	H1844   -25.0320    -2.5920    33.3300	H	1	noname	0.0000
3759	H1845   -23.0280    -3.7870    29.6990	H	1	noname	0.0000
3760	H1846   -24.6280    -4.7420    32.7400	H	1	noname	0.0000
3761	C1202   -27.6180     2.3340    32.5620	C.2	1	noname	0.0000
3762	C1203   -27.8840     2.6630    31.0990	C.3	1	noname	0.0000
3763	N322   -26.8980     1.9530    30.2830	N.3	1	noname	0.0000
3764	O385   -27.9520     1.2320    33.0010	O.2	1	noname	0.0000
3765	C1204   -29.3200     2.2720    30.7210	C.3	1	noname	0.0000
3766	C1205   -29.7340     2.8060    29.3480	C.3	1	noname	0.0000
3767	C1206   -31.2300     2.5630    29.1310	C.3	1	noname	0.0000
3768	C1207   -31.6290     3.1190    27.7650	C.3	1	noname	0.0000
3769	N323   -33.0800     2.9470    27.5220	N.3	1	noname	0.0000
3770	H1847   -27.1510     1.0740    29.8550	H	1	noname	0.0000
3771	H1848   -27.7550     3.7380    30.9750	H	1	noname	0.0000
3772	H1849   -29.4230     1.1870    30.7390	H	1	noname	0.0000
3773	H1850   -29.9870     2.6920    31.4730	H	1	noname	0.0000
3774	H1851   -29.5340     3.8760    29.3030	H	1	noname	0.0000
3775	H1852   -29.1600     2.3040    28.5690	H	1	noname	0.0000
3776	H1853   -31.4310     1.4920    29.1760	H	1	noname	0.0000
3777	H1854   -31.7900     3.0720    29.9150	H	1	noname	0.0000
3778	H1855   -31.3580     4.1740    27.7320	H	1	noname	0.0000
3779	H1856   -31.0430     2.6110    26.9980	H	1	noname	0.0000
3780	H1857   -33.5960     3.4490    28.2290	H	1	noname	0.0000
3781	H1858   -33.3260     1.9680    27.5580	H	1	noname	0.0000
3782	H1859   -33.3180     3.3280    26.6170	H	1	noname	0.0000
3783	C1208   -28.4750     3.2470    35.3190	C.2	1	noname	0.0000
3784	C1209   -27.0450     3.1680    34.7640	C.3	1	noname	0.0000
3785	N324   -27.0630     3.2770    33.3100	N.3	1	noname	0.0000
3786	O386   -29.3790     3.8380    34.7170	O.2	1	noname	0.0000
3787	C1210   -26.1070     4.2140    35.3850	C.3	1	noname	0.0000
3788	C1211   -24.6230     3.8530    35.2410	C.2	1	noname	0.0000
3789	O387   -24.3310     2.6540    35.0180	O.2	1	noname	0.0000
3790	O388   -23.8020     4.7700    35.4530	O.3	1	noname	0.0000
3791	H1860   -26.6810     4.1040    32.8740	H	1	noname	0.0000
3792	H1861   -26.6640     2.1810    35.0270	H	1	noname	0.0000
3793	H1862   -26.3010     5.1880    34.9340	H	1	noname	0.0000
3794	H1863   -26.3270     4.2890    36.4500	H	1	noname	0.0000
3795	C1212   -30.6840     3.8130    37.5330	C.2	1	noname	0.0000
3796	C1213   -30.0120     2.4910    37.1180	C.3	1	noname	0.0000
3797	N325   -28.6950     2.6270    36.4820	N.3	1	noname	0.0000
3798	O389   -31.7990     3.7650    38.0460	O.2	1	noname	0.0000
3799	C1214   -29.9290     1.4860    38.2940	C.3	1	noname	0.0000
3800	C1215   -30.5150     0.1190    38.0160	C.2	1	noname	0.0000
3801	N326   -31.3130    -0.2400    36.9530	N.2	1	noname	0.0000
3802	C1216   -31.6590    -1.5280    37.1010	C.2	1	noname	0.0000
3803	C1217   -30.4010    -0.9890    38.8140	C.2	1	noname	0.0000
3804	N327   -31.1280    -2.0310    38.2250	N.3	1	noname	0.0000
3805	H1864   -27.9040     2.1840    36.9260	H	1	noname	0.0000
3806	H1865   -30.6800     2.0930    36.3550	H	1	noname	0.0000
3807	H1866   -30.4610     1.8910    39.1550	H	1	noname	0.0000
3808	H1867   -28.8910     1.3660    38.6030	H	1	noname	0.0000
3809	H1868   -31.5880     0.3680    36.1950	H	1	noname	0.0000
3810	H1869   -29.8560    -1.0410    39.7450	H	1	noname	0.0000
3811	H1870   -32.2790    -2.0860    36.4160	H	1	noname	0.0000
3812	C1218   -30.9450     7.1010    36.2440	C.2	1	noname	0.0000
3813	C1219   -30.6400     6.2920    37.5240	C.3	1	noname	0.0000
3814	N328   -30.0680     4.9650    37.2630	N.3	1	noname	0.0000
3815	O390   -31.2680     8.2820    36.2990	O.2	1	noname	0.0000
3816	C1220   -29.7530     7.0330    38.5400	C.3	1	noname	0.0000
3817	C1221   -30.5350     7.9250    39.5160	C.2	1	noname	0.0000
3818	O391   -31.7630     7.7310    39.6710	O.2	1	noname	0.0000
3819	O392   -29.8630     8.7390    40.1890	O.3	1	noname	0.0000
3820	H1871   -29.1690     4.9290    36.8050	H	1	noname	0.0000
3821	H1872   -31.6130     6.1370    37.9900	H	1	noname	0.0000
3822	H1873   -29.0100     7.6240    38.0050	H	1	noname	0.0000
3823	H1874   -29.2160     6.3010    39.1440	H	1	noname	0.0000
3824	C1222   -30.7240     8.2190    33.2220	C.2	1	noname	0.0000
3825	C1223   -31.4580     7.0190    33.8300	C.3	1	noname	0.0000
3826	N329   -30.8920     6.4630    35.0660	N.3	1	noname	0.0000
3827	O393   -31.2620     8.8270    32.2960	O.2	1	noname	0.0000
3828	H1875   -30.5410     5.5160    35.0540	H	1	noname	0.0000
3829	H1876   -32.4840     7.3300    34.0280	H	1	noname	0.0000
3830	H1877   -31.4730     6.2310    33.0760	H	1	noname	0.0000
3831	C1224   -27.5950     9.0000    32.1790	C.2	1	noname	0.0000
3832	C1225   -28.6590     9.5800    33.1270	C.3	1	noname	0.0000
3833	N330   -29.5140     8.5310    33.6870	N.3	1	noname	0.0000
3834	O394   -26.9780     7.9700    32.4550	O.2	1	noname	0.0000
3835	C1226   -28.0540    10.4250    34.2590	C.3	1	noname	0.0000
3836	C1227   -27.3350    11.6750    33.7400	C.2	1	noname	0.0000
3837	O395   -27.7700    12.1950    32.6850	O.2	1	noname	0.0000
3838	O396   -26.3620    12.0960    34.4130	O.3	1	noname	0.0000
3839	H1878   -29.1530     8.0070    34.4720	H	1	noname	0.0000
3840	H1879   -29.2880    10.2510    32.5420	H	1	noname	0.0000
3841	H1880   -28.8520    10.7440    34.9280	H	1	noname	0.0000
3842	H1881   -27.3560     9.8100    34.8280	H	1	noname	0.0000
3843	C1228   -25.0730     9.7930    30.3680	C.2	1	noname	0.0000
3844	C1229   -26.4670     9.2920    29.9830	C.3	1	noname	0.0000
3845	N331   -27.4090     9.6620    31.0380	N.3	1	noname	0.0000
3846	O397   -24.7880    10.9830    30.2310	O.2	1	noname	0.0000
3847	C1230   -26.9280     9.9250    28.6530	C.3	1	noname	0.0000
3848	C1231   -27.4800     8.9670    27.6250	C.2	1	noname	0.0000
3849	C1232   -26.6800     8.6120    26.5280	C.2	1	noname	0.0000
3850	C1233   -28.8000     8.4850    27.7280	C.2	1	noname	0.0000
3851	C1234   -27.2020     7.7810    25.5320	C.2	1	noname	0.0000
3852	C1235   -29.3130     7.6130    26.7460	C.2	1	noname	0.0000
3853	C1236   -28.4980     7.2350    25.6620	C.2	1	noname	0.0000
3854	O398   -28.9140     6.2740    24.7990	O.3	1	noname	0.0000
3855	H1882   -27.8030    10.5910    31.0020	H	1	noname	0.0000
3856	H1883   -26.4320     8.2080    29.8730	H	1	noname	0.0000
3857	H1884   -26.0890    10.4440    28.1870	H	1	noname	0.0000
3858	H1885   -27.6750    10.6940    28.8480	H	1	noname	0.0000
3859	H1886   -25.6630     8.9680    26.4530	H	1	noname	0.0000
3860	H1887   -29.4000     8.7670    28.5800	H	1	noname	0.0000
3861	H1888   -26.5730     7.5070    24.6980	H	1	noname	0.0000
3862	H1889   -30.3040     7.1960    26.8440	H	1	noname	0.0000
3863	H1890   -28.0930     5.8250    24.5870	H	1	noname	0.0000
3864	C1237   -21.9230     8.6140    29.9280	C.2	1	noname	0.0000
3865	C1238   -22.7710     9.2620    31.0070	C.3	1	noname	0.0000
3866	N332   -24.1830     8.9070    30.8220	N.3	1	noname	0.0000
3867	O399   -21.7340     7.4010    29.9110	O.2	1	noname	0.0000
3868	C1239   -22.3040     8.9840    32.4410	C.3	1	noname	0.0000
3869	C1240   -22.9510    10.0240    33.3670	C.3	1	noname	0.0000
3870	C1241   -22.3840     9.9730    34.7810	C.3	1	noname	0.0000
3871	C1242   -23.0810    11.0710    35.5850	C.3	1	noname	0.0000
3872	N333   -22.8500    10.8930    37.0330	N.3	1	noname	0.0000
3873	H1891   -24.4720     7.9500    30.9640	H	1	noname	0.0000
3874	H1892   -22.6480    10.3350    30.8590	H	1	noname	0.0000
3875	H1893   -21.2190     9.0880    32.4850	H	1	noname	0.0000
3876	H1894   -22.5770     7.9730    32.7440	H	1	noname	0.0000
3877	H1895   -24.0270     9.8500    33.4070	H	1	noname	0.0000
3878	H1896   -22.7770    11.0220    32.9650	H	1	noname	0.0000
3879	H1897   -21.3070    10.1390    34.7600	H	1	noname	0.0000
3880	H1898   -22.5990     8.9920    35.2040	H	1	noname	0.0000
3881	H1899   -22.7290    12.0440    35.2410	H	1	noname	0.0000
3882	H1900   -24.1490    11.0290    35.3700	H	1	noname	0.0000
3883	H1901   -23.3690    11.5960    37.5400	H	1	noname	0.0000
3884	H1902   -23.1970     9.9840    37.3030	H	1	noname	0.0000
3885	H1903   -21.8630    10.9550    37.2420	H	1	noname	0.0000
3886	C1243   -19.1240     8.7480    29.0570	C.2	1	noname	0.0000
3887	C1244   -20.2950     9.1390    28.1530	C.3	1	noname	0.0000
3888	N334   -21.4140     9.4610    29.0340	N.3	1	noname	0.0000
3889	O400   -18.4890     9.5890    29.6920	O.2	1	noname	0.0000
3890	C1245   -19.9820    10.3550    27.2550	C.3	1	noname	0.0000
3891	C1246   -18.9960    10.0780    26.1020	C.2	1	noname	0.0000
3892	O401   -18.8980     8.9110    25.6400	O.2	1	noname	0.0000
3893	O402   -18.4320    11.0600    25.5770	O.3	1	noname	0.0000
3894	H1904   -21.6600    10.4370    29.1170	H	1	noname	0.0000
3895	H1905   -20.5610     8.2940    27.5180	H	1	noname	0.0000
3896	H1906   -20.9150    10.6940    26.8060	H	1	noname	0.0000
3897	H1907   -19.6030    11.1720    27.8690	H	1	noname	0.0000
3898	C1247   -16.5760     7.2050    28.8150	C.2	1	noname	0.0000
3899	C1248   -17.6840     6.9660    29.8340	C.3	1	noname	0.0000
3900	N335   -18.9060     7.4460    29.2220	N.3	1	noname	0.0000
3901	O403   -16.3230     6.3660    27.9450	O.2	1	noname	0.0000
3902	C1249   -17.8190     5.5050    30.2930	C.3	1	noname	0.0000
3903	C1250   -18.2290     5.3880    31.7400	C.2	1	noname	0.0000
3904	N336   -17.4140     5.6500    32.8180	N.2	1	noname	0.0000
3905	C1251   -18.1210     5.4330    33.9380	C.2	1	noname	0.0000
3906	C1252   -19.4510     5.0170    32.2370	C.2	1	noname	0.0000
3907	N337   -19.3630     5.0350    33.6350	N.3	1	noname	0.0000
3908	H1908   -19.5460     6.7880    28.8000	H	1	noname	0.0000
3909	H1909   -17.4570     7.5730    30.7100	H	1	noname	0.0000
3910	H1910   -16.8510     5.0150    30.1920	H	1	noname	0.0000
3911	H1911   -18.5280     4.9740    29.6570	H	1	noname	0.0000
3912	H1912   -16.4660     5.9960    32.7680	H	1	noname	0.0000
3913	H1913   -20.3260     4.7630    31.6590	H	1	noname	0.0000
3914	H1914   -17.7540     5.5660    34.9450	H	1	noname	0.0000
3915	C1253   -13.7650     7.3500    28.9920	C.2	1	noname	0.0000
3916	C1254   -14.5570     8.5640    28.5000	C.3	1	noname	0.0000
3917	N338   -15.9270     8.3650    28.9410	N.3	1	noname	0.0000
3918	O404   -13.4510     7.2030    30.1770	O.2	1	noname	0.0000
3919	C1255   -13.9760     9.8790    29.0670	C.3	1	noname	0.0000
3920	C1256   -14.2100    11.1030    28.1710	C.2	1	noname	0.0000
3921	O405   -14.1840    10.9210    26.9290	O.2	1	noname	0.0000
3922	O406   -14.3540    12.2110    28.7350	O.3	1	noname	0.0000
3923	H1915   -16.3450     9.0840    29.5130	H	1	noname	0.0000
3924	H1916   -14.5190     8.5910    27.4110	H	1	noname	0.0000
3925	H1917   -14.3780    10.0590    30.0640	H	1	noname	0.0000
3926	H1918   -12.8960     9.7630    29.1650	H	1	noname	0.0000
3927	C1257   -11.1880     6.3610    28.1670	C.2	1	noname	0.0000
3928	C1258   -12.4090     5.4680    28.2530	C.3	1	noname	0.0000
3929	N339   -13.5000     6.4120    28.0800	N.3	1	noname	0.0000
3930	O407   -10.7150     6.6590    27.0720	O.2	1	noname	0.0000
3931	C1259   -12.4180     4.3320    27.2090	C.3	1	noname	0.0000
3932	C1260   -13.7090     3.4980    27.3590	C.3	1	noname	0.0000
3933	C1261   -11.1680     3.4420    27.3870	C.3	1	noname	0.0000
3934	C1262   -13.8680     2.3960    26.3050	C.3	1	noname	0.0000
3935	H1919   -13.9070     6.5350    27.1630	H	1	noname	0.0000
3936	H1920   -12.4600     5.0290    29.2490	H	1	noname	0.0000
3937	H1921   -12.3970     4.7680    26.2110	H	1	noname	0.0000
3938	H1922   -14.5720     4.1570    27.2680	H	1	noname	0.0000
3939	H1923   -13.7380     3.0460    28.3510	H	1	noname	0.0000
3940	H1924   -11.1300     2.6760    26.6110	H	1	noname	0.0000
3941	H1925   -10.2610     4.0390    27.2980	H	1	noname	0.0000
3942	H1926   -11.1820     2.9700    28.3690	H	1	noname	0.0000
3943	H1927   -13.1250     1.6120    26.4540	H	1	noname	0.0000
3944	H1928   -14.8590     1.9520    26.3980	H	1	noname	0.0000
3945	H1929   -13.7620     2.8200    25.3060	H	1	noname	0.0000
3946	C1263    -8.4510     6.9110    28.9600	C.2	1	noname	0.0000
3947	C1264    -9.6160     7.5940    29.6810	C.3	1	noname	0.0000
3948	N340   -10.8050     6.8400    29.3450	N.3	1	noname	0.0000
3949	O408    -7.8830     5.9100    29.4150	O.2	1	noname	0.0000
3950	C1265    -9.5310     7.5850    31.2270	C.3	1	noname	0.0000
3951	C1266    -8.7220     8.7140    31.8700	C.2	1	noname	0.0000
3952	O409    -8.5280     9.7530    31.2110	O.2	1	noname	0.0000
3953	O410    -8.3080     8.5140    33.0420	O.3	1	noname	0.0000
3954	H1930   -11.4670     6.7190    30.0980	H	1	noname	0.0000
3955	H1931    -9.7230     8.6200    29.3290	H	1	noname	0.0000
3956	H1932    -9.1470     6.6230    31.5670	H	1	noname	0.0000
3957	H1933   -10.5400     7.6770    31.6270	H	1	noname	0.0000
3958	C1267    -5.9490     7.8600    27.9060	C.2	1	noname	0.0000
3959	C1268    -6.9440     7.1150    27.0440	C.3	1	noname	0.0000
3960	N341    -8.1790     7.3850    27.7430	N.3	1	noname	0.0000
3961	O411    -5.8460     9.0800    27.8420	O.2	1	noname	0.0000
3962	C1269    -7.0060     7.5970    25.5840	C.3	1	noname	0.0000
3963	C1270    -6.2670     6.6970    24.6110	C.2	1	noname	0.0000
3964	C1271    -4.9150     6.9310    24.2940	C.2	1	noname	0.0000
3965	C1272    -6.9560     5.6260    24.0070	C.2	1	noname	0.0000
3966	C1273    -4.2550     6.1000    23.3670	C.2	1	noname	0.0000
3967	C1274    -6.3040     4.7970    23.0730	C.2	1	noname	0.0000
3968	C1275    -4.9520     5.0380    22.7510	C.2	1	noname	0.0000
3969	O412    -4.3140     4.2490    21.8450	O.3	1	noname	0.0000
3970	H1934    -8.7620     8.1340    27.3970	H	1	noname	0.0000
3971	H1935    -6.7370     6.0450    27.0660	H	1	noname	0.0000
3972	H1936    -8.0490     7.6340    25.2710	H	1	noname	0.0000
3973	H1937    -6.6230     8.6140    25.4980	H	1	noname	0.0000
3974	H1938    -4.3910     7.7590    24.7480	H	1	noname	0.0000
3975	H1939    -7.9900     5.4530    24.2640	H	1	noname	0.0000
3976	H1940    -3.2200     6.3030    23.1340	H	1	noname	0.0000
3977	H1941    -6.8290     3.9780    22.6040	H	1	noname	0.0000
3978	H1942    -3.4010     4.5390    21.7830	H	1	noname	0.0000
3979	C1276    -3.1910     8.0370    29.0390	C.2	1	noname	0.0000
3980	C1277    -4.4280     7.6190    29.8270	C.3	1	noname	0.0000
3981	N342    -5.3780     7.1220    28.8540	N.3	1	noname	0.0000
3982	O413    -2.2640     7.2520    28.8670	O.2	1	noname	0.0000
3983	C1278    -4.2080     6.5130    30.8750	C.3	1	noname	0.0000
3984	C1279    -3.8140     7.0710    32.2410	C.3	1	noname	0.0000
3985	C1280    -3.7000     5.9190    33.2540	C.3	1	noname	0.0000
3986	C1281    -3.7310     6.4450    34.6890	C.3	1	noname	0.0000
3987	N343    -5.0730     7.0050    35.0050	N.3	1	noname	0.0000
3988	H1943    -5.7190     6.1760    28.9530	H	1	noname	0.0000
3989	H1944    -4.8480     8.5080    30.2980	H	1	noname	0.0000
3990	H1945    -3.4580     5.8010    30.5310	H	1	noname	0.0000
3991	H1946    -5.1460     5.9740    31.0050	H	1	noname	0.0000
3992	H1947    -2.8610     7.5950    32.1690	H	1	noname	0.0000
3993	H1948    -4.5840     7.7790    32.5500	H	1	noname	0.0000
3994	H1949    -4.5150     5.2090    33.1130	H	1	noname	0.0000
3995	H1950    -2.7570     5.4010    33.0770	H	1	noname	0.0000
3996	H1951    -2.9640     7.2140    34.7810	H	1	noname	0.0000
3997	H1952    -3.4880     5.6270    35.3670	H	1	noname	0.0000
3998	H1953    -5.3040     7.7340    34.3450	H	1	noname	0.0000
3999	H1954    -5.8060     6.3210    34.8840	H	1	noname	0.0000
4000	H1955    -5.1240     7.4130    35.9270	H	1	noname	0.0000
4001	C1282    -1.2150    10.2060    29.1630	C.2	1	noname	0.0000
4002	C1283    -2.0960     9.9380    27.9420	C.3	1	noname	0.0000
4003	N344    -3.2440     9.2340    28.4700	N.3	1	noname	0.0000
4004	O414    -1.4660    11.0890    29.9820	O.2	1	noname	0.0000
4005	C1284    -2.5230    11.2120    27.1790	C.3	1	noname	0.0000
4006	C1285    -2.9170    10.9670    25.7080	C.2	1	noname	0.0000
4007	O415    -2.4710     9.9480    25.1250	O.2	1	noname	0.0000
4008	O416    -3.6410    11.8160    25.1400	O.3	1	noname	0.0000
4009	H1956    -4.1280     9.7230    28.4810	H	1	noname	0.0000
4010	H1957    -1.5450     9.2910    27.2600	H	1	noname	0.0000
4011	H1958    -1.6790    11.9020    27.1750	H	1	noname	0.0000
4012	H1959    -3.3440    11.6970    27.7080	H	1	noname	0.0000
4013	C1286     1.7640    10.6550    30.1570	C.2	1	noname	0.0000
4014	C1287     0.8290     9.4350    30.3660	C.3	1	noname	0.0000
4015	N345    -0.2070     9.3530    29.3350	N.3	1	noname	0.0000
4016	O417     2.9510    10.5840    30.4680	O.2	1	noname	0.0000
4017	C1288     1.5860     8.0810    30.4370	C.3	1	noname	0.0000
4018	C1289     0.9960     7.0450    31.4070	C.2	1	noname	0.0000
4019	O418     0.5500     7.4270    32.5200	O.2	1	noname	0.0000
4020	O419     1.1120     5.8330    31.1050	O.3	1	noname	0.0000
4021	H1960    -0.1560     8.5780    28.6900	H	1	noname	0.0000
4022	H1961     0.3370     9.6010    31.3240	H	1	noname	0.0000
4023	H1962     1.6550     7.6530    29.4370	H	1	noname	0.0000
4024	H1963     2.6090     8.2380    30.7790	H	1	noname	0.0000
4025	C1290     1.6180    14.1970    30.3830	C.2	1	noname	0.0000
4026	C1291     2.0070    13.0280    29.4530	C.3	1	noname	0.0000
4027	N346     1.2460    11.7900    29.6730	N.3	1	noname	0.0000
4028	O420     2.3630    15.1710    30.4650	O.2	1	noname	0.0000
4029	C1292     2.0270    13.3970    27.9550	C.3	1	noname	0.0000
4030	C1293     3.1650    12.7120    27.1710	C.2	1	noname	0.0000
4031	O421     4.2590    12.4960    27.7470	O.2	1	noname	0.0000
4032	O422     2.9780    12.4670    25.9560	O.3	1	noname	0.0000
4033	H1964     0.2600    11.7950    29.4550	H	1	noname	0.0000
4034	H1965     3.0430    12.8400    29.7330	H	1	noname	0.0000
4035	H1966     1.0640    13.1570    27.5060	H	1	noname	0.0000
4036	H1967     2.1740    14.4730    27.8590	H	1	noname	0.0000
4037	C1294     0.7800    14.9160    33.6200	C.2	1	noname	0.0000
4038	C1295     0.2240    15.1330    32.1960	C.3	1	noname	0.0000
4039	N347     0.5840    14.0750    31.2260	N.3	1	noname	0.0000
4040	O423     0.2380    15.3880    34.6230	O.2	1	noname	0.0000
4041	C1296    -1.2760    15.4680    32.1190	C.3	1	noname	0.0000
4042	C1297    -1.6320    16.4620    31.0010	C.2	1	noname	0.0000
4043	O424    -0.7150    17.0780    30.4110	O.2	1	noname	0.0000
4044	O425    -2.8490    16.6680    30.8100	O.3	1	noname	0.0000
4045	H1968    -0.0490    13.3010    31.0860	H	1	noname	0.0000
4046	H1969     0.7340    16.0470    31.8930	H	1	noname	0.0000
4047	H1970    -1.5980    15.9260    33.0550	H	1	noname	0.0000
4048	H1971    -1.8460    14.5470    31.9930	H	1	noname	0.0000
4049	C1298     3.6860    15.4650    35.1480	C.2	1	noname	0.0000
4050	C1299     2.7340    14.2720    35.0020	C.3	1	noname	0.0000
4051	N348     1.9470    14.2670    33.7460	N.3	1	noname	0.0000
4052	O426     4.6300    15.4060    35.9370	O.2	1	noname	0.0000
4053	C1300     3.3840    12.9060    35.2740	C.3	1	noname	0.0000
4054	C1301     2.4150    12.0200    36.0640	C.3	1	noname	0.0000
4055	C1302     3.1450    10.7920    36.6050	C.3	1	noname	0.0000
4056	C1303     2.1580     9.9430    37.4030	C.3	1	noname	0.0000
4057	N349     2.7900     8.6790    37.8380	N.3	1	noname	0.0000
4058	H1972     2.3550    13.9180    32.8910	H	1	noname	0.0000
4059	H1973     2.0290    14.4510    35.8130	H	1	noname	0.0000
4060	H1974     4.2890    13.0260    35.8700	H	1	noname	0.0000
4061	H1975     3.6600    12.4260    34.3360	H	1	noname	0.0000
4062	H1976     2.0110    12.5770    36.9100	H	1	noname	0.0000
4063	H1977     1.5950    11.7130    35.4150	H	1	noname	0.0000
4064	H1978     3.9700    11.1070    37.2440	H	1	noname	0.0000
4065	H1979     3.5340    10.2200    35.7620	H	1	noname	0.0000
4066	H1980     1.3020     9.7330    36.7620	H	1	noname	0.0000
4067	H1981     1.8050    10.5220    38.2570	H	1	noname	0.0000
4068	H1982     3.5980     8.8650    38.4140	H	1	noname	0.0000
4069	H1983     2.1230     8.1090    38.3390	H	1	noname	0.0000
4070	H1984     3.0820     8.1680    37.0170	H	1	noname	0.0000
4071	C1304     3.3910    19.0700    34.6120	C.2	1	noname	0.0000
4072	C1305     4.2290    17.7820    34.5830	C.3	1	noname	0.0000
4073	N350     3.4200    16.5740    34.4650	N.3	1	noname	0.0000
4074	O427     3.4810    19.8600    33.6860	O.2	1	noname	0.0000
4075	C1306     5.2860    17.7660    33.4680	C.3	1	noname	0.0000
4076	H1985     2.6540    16.5640    33.8070	H	1	noname	0.0000
4077	H1986     4.7680    17.7620    35.5300	H	1	noname	0.0000
4078	H1987     5.8970    16.8660    33.5450	H	1	noname	0.0000
4079	H1988     4.7970    17.7780    32.4940	H	1	noname	0.0000
4080	H1989     5.9290    18.6420    33.5520	H	1	noname	0.0000
4081	C1307     1.2560    20.6070    37.3350	C.2	1	noname	0.0000
4082	C1308     2.4110    20.6220    36.3110	C.3	1	noname	0.0000
4083	N351     2.6140    19.2970    35.6820	N.3	1	noname	0.0000
4084	O428     0.2400    21.2690    37.1580	O.2	1	noname	0.0000
4085	C1309     2.1860    21.7590    35.2910	C.3	1	noname	0.0000
4086	H1990     2.3790    18.4880    36.2400	H	1	noname	0.0000
4087	H1991     3.3160    20.8670    36.8650	H	1	noname	0.0000
4088	H1992     1.4040    21.4780    34.5850	H	1	noname	0.0000
4089	H1993     1.8840    22.6710    35.8050	H	1	noname	0.0000
4090	H1994     3.1060    21.9870    34.7530	H	1	noname	0.0000
4091	C1310     1.5200    20.9410    40.6500	C.2	1	noname	0.0000
4092	C1311     0.6290    20.1840    39.6550	C.3	1	noname	0.0000
4093	N352     1.4200    19.9010    38.4560	N.3	1	noname	0.0000
4094	O429     2.2380    20.3410    41.4510	O.2	1	noname	0.0000
4095	C1312     0.0140    18.8880    40.1950	C.3	1	noname	0.0000
4096	H1995     2.2480    19.3340    38.5660	H	1	noname	0.0000
4097	H1996    -0.2090    20.8380    39.4150	H	1	noname	0.0000
4098	H1997     0.7990    18.1810    40.4610	H	1	noname	0.0000
4099	H1998    -0.6310    18.4450    39.4360	H	1	noname	0.0000
4100	H1999    -0.5830    19.1110    41.0790	H	1	noname	0.0000
4101	C1313     0.9900    23.0840    42.7830	C.2	1	noname	0.0000
4102	C1314     1.9990    23.1520    41.6180	C.3	1	noname	0.0000
4103	N353     1.5240    22.2730    40.5470	N.3	1	noname	0.0000
4104	O430    -0.2130    23.1000    42.5280	O.2	1	noname	0.0000
4105	C1315     2.1470    24.5930    41.0910	C.3	1	noname	0.0000
4106	C1316     3.4390    24.8310    40.2880	C.3	1	noname	0.0000
4107	C1317     3.3170    26.1020    39.4480	C.3	1	noname	0.0000
4108	C1318     4.6470    24.9930    41.2160	C.3	1	noname	0.0000
4109	H2000     0.9040    22.6810    39.8610	H	1	noname	0.0000
4110	H2001     2.9690    22.7870    41.9550	H	1	noname	0.0000
4111	H2002     2.1290    25.2860    41.9320	H	1	noname	0.0000
4112	H2003     1.2810    24.8220    40.4700	H	1	noname	0.0000
4113	H2004     3.6130    23.9920    39.6140	H	1	noname	0.0000
4114	H2005     2.4900    25.9960    38.7460	H	1	noname	0.0000
4115	H2006     4.2340    26.2630    38.8810	H	1	noname	0.0000
4116	H2007     3.1290    26.9620    40.0910	H	1	noname	0.0000
4117	H2008     4.7900    24.0870    41.8040	H	1	noname	0.0000
4118	H2009     4.4940    25.8390    41.8870	H	1	noname	0.0000
4119	H2010     5.5440    25.1640    40.6210	H	1	noname	0.0000
4120	C1319    -0.1690    24.0070    45.6110	C.2	1	noname	0.0000
4121	C1320     0.5530    22.7290    45.1720	C.3	1	noname	0.0000
4122	N354     1.4410    22.9830    44.0450	N.3	1	noname	0.0000
4123	O431     0.4690    24.9670    46.0450	O.2	1	noname	0.0000
4124	C1321     1.4570    22.1540    46.2680	C.3	1	noname	0.0000
4125	C1322     2.8190    22.7910    45.9850	C.3	1	noname	0.0000
4126	C1323     2.8310    22.9780    44.4700	C.3	1	noname	0.0000
4127	H2011    -0.1900    21.9800    44.9000	H	1	noname	0.0000
4128	H2012     1.0970    22.3980    47.2680	H	1	noname	0.0000
4129	H2013     1.5300    21.0740    46.1440	H	1	noname	0.0000
4130	H2014     2.8760    23.7650    46.4710	H	1	noname	0.0000
4131	H2015     3.6380    22.1530    46.3180	H	1	noname	0.0000
4132	H2016     3.3250    23.9140    44.2070	H	1	noname	0.0000
4133	H2017     3.3470    22.1340    44.0110	H	1	noname	0.0000
4134	C1324    -2.3170    24.6920    47.7700	C.2	1	noname	0.0000
4135	C1325    -2.3090    24.9910    46.2670	C.3	1	noname	0.0000
4136	N355    -1.5020    23.9980    45.5620	N.3	1	noname	0.0000
4137	O432    -2.6740    23.6140    48.2480	O.2	1	noname	0.0000
4138	C1326    -3.7290    25.1210    45.7010	C.3	1	noname	0.0000
4139	C1327    -3.7420    25.9180    44.3860	C.3	1	noname	0.0000
4140	C1328    -5.1530    26.3820    43.9900	C.2	1	noname	0.0000
4141	O433    -5.2400    27.4380    43.3230	O.2	1	noname	0.0000
4142	O434    -6.1290    25.6980    44.3720	O.3	1	noname	0.0000
4143	H2018    -1.9810    23.2250    45.1240	H	1	noname	0.0000
4144	H2019    -1.8340    25.9640    46.1340	H	1	noname	0.0000
4145	H2020    -4.1640    24.1330    45.5530	H	1	noname	0.0000
4146	H2021    -4.3290    25.6620    46.4320	H	1	noname	0.0000
4147	H2022    -3.3200    25.3010    43.5930	H	1	noname	0.0000
4148	H2023    -3.1060    26.7950    44.5040	H	1	noname	0.0000
4149	C1329    -3.1870    25.8130    50.5870	C.2	1	noname	0.0000
4150	C1330    -1.7940    25.7470    49.9700	C.3	1	noname	0.0000
4151	N356    -1.8590    25.6870    48.5170	N.3	1	noname	0.0000
4152	O435    -4.0040    26.6490    50.2070	O.2	1	noname	0.0000
4153	C1331    -1.0120    27.0040    50.3710	C.3	1	noname	0.0000
4154	C1332     0.4820    26.8490    50.0810	C.3	1	noname	0.0000
4155	O436    -1.4720    28.1130    49.6280	O.3	1	noname	0.0000
4156	H2024    -1.5760    26.5280    48.0350	H	1	noname	0.0000
4157	H2025    -1.2770    24.8630    50.3430	H	1	noname	0.0000
4158	H2026    -1.1490    27.1940    51.4360	H	1	noname	0.0000
4159	H2027    -2.4310    28.1050    49.6710	H	1	noname	0.0000
4160	H2028     0.6450    26.6880    49.0150	H	1	noname	0.0000
4161	H2029     1.0030    27.7560    50.3860	H	1	noname	0.0000
4162	H2030     0.8810    26.0020    50.6390	H	1	noname	0.0000
4163	C1333    -4.9220    26.2410    53.1570	C.2	1	noname	0.0000
4164	C1334    -4.6540    24.9530    52.3720	C.3	1	noname	0.0000
4165	N357    -3.4240    24.9680    51.5910	N.3	1	noname	0.0000
4166	O437    -4.0120    26.9290    53.6140	O.2	1	noname	0.0000
4167	H2031    -2.7110    24.2880    51.8120	H	1	noname	0.0000
4168	H2032    -5.4840    24.7890    51.6860	H	1	noname	0.0000
4169	H2033    -4.6290    24.1200    53.0750	H	1	noname	0.0000
4170	C1335    -8.0060    27.0370    54.9200	C.2	1	noname	0.0000
4171	C1336    -6.7230    27.5390    54.2660	C.3	1	noname	0.0000
4172	N358    -6.2090    26.5080    53.3720	N.3	1	noname	0.0000
4173	O438    -8.9910    26.7520    54.2500	O.2	1	noname	0.0000
4174	H2034    -6.8950    25.9510    52.8840	H	1	noname	0.0000
4175	H2035    -5.9820    27.7810    55.0270	H	1	noname	0.0000
4176	H2036    -6.9460    28.4410    53.6960	H	1	noname	0.0000
4177	C1337   -10.2470    26.8740    57.2450	C.2	1	noname	0.0000
4178	C1338    -8.8830    26.1790    57.1070	C.3	1	noname	0.0000
4179	N359    -7.9240    26.8390    56.2290	N.3	1	noname	0.0000
4180	O439   -10.3520    28.0980    57.2470	O.2	1	noname	0.0000
4181	C1339    -8.2260    26.1030    58.4990	C.3	1	noname	0.0000
4182	C1340    -7.6580    24.7620    58.8710	C.2	1	noname	0.0000
4183	N360    -6.8890    23.9270    58.0910	N.2	1	noname	0.0000
4184	C1341    -6.5920    22.8390    58.8240	C.2	1	noname	0.0000
4185	C1342    -7.8070    24.1560    60.0880	C.2	1	noname	0.0000
4186	N361    -7.1320    22.9350    60.0480	N.3	1	noname	0.0000
4187	H2037    -7.0860    27.1830    56.6750	H	1	noname	0.0000
4188	H2038    -9.0580    25.1700    56.7330	H	1	noname	0.0000
4189	H2039    -7.4420    26.8530    58.5970	H	1	noname	0.0000
4190	H2040    -8.9710    26.3510    59.2560	H	1	noname	0.0000
4191	H2041    -6.5960    24.0950    57.1390	H	1	noname	0.0000
4192	H2042    -8.3510    24.5530    60.9330	H	1	noname	0.0000
4193	H2043    -6.0030    22.0010    58.4810	H	1	noname	0.0000
4194	C1343   -12.2870    27.4040    59.3880	C.2	1	noname	0.0000
4195	C1344   -12.4600    26.3250    58.3000	C.3	1	noname	0.0000
4196	N362   -11.2510    26.0360    57.5260	N.3	1	noname	0.0000
4197	O440   -11.4210    27.2710    60.2560	O.2	1	noname	0.0000
4198	C1345   -12.8210    25.0330    59.0730	C.3	1	noname	0.0000
4199	C1346   -13.6370    23.9720    58.3850	C.2	1	noname	0.0000
4200	N363   -14.1930    22.8890    59.0300	N.2	1	noname	0.0000
4201	C1347   -14.9610    22.2250    58.1530	C.2	1	noname	0.0000
4202	C1348   -14.0820    23.9390    57.0900	C.2	1	noname	0.0000
4203	N364   -14.9210    22.8290    56.9590	N.3	1	noname	0.0000
4204	H2044   -11.0430    25.0540    57.4170	H	1	noname	0.0000
4205	H2045   -13.2750    26.6130    57.6350	H	1	noname	0.0000
4206	H2046   -13.4090    25.3170    59.9460	H	1	noname	0.0000
4207	H2047   -11.9090    24.5760    59.4590	H	1	noname	0.0000
4208	H2048   -14.0690    22.6430    60.0020	H	1	noname	0.0000
4209	H2049   -13.8680    24.6630    56.3170	H	1	noname	0.0000
4210	H2050   -15.5320    21.3350    58.3680	H	1	noname	0.0000
4211	C1349   -15.3860    28.9820    60.5660	C.2	1	noname	0.0000
4212	C1350   -13.9350    28.5440    60.7670	C.3	1	noname	0.0000
4213	N365   -13.2600    28.3140    59.4880	N.3	1	noname	0.0000
4214	O441   -15.6960    30.0060    59.9660	O.2	1	noname	0.0000
4215	C1351   -13.1700    29.4850    61.7110	C.3	1	noname	0.0000
4216	C1352   -12.7720    28.7610    62.9750	C.2	1	noname	0.0000
4217	N366   -11.8240    27.7700    63.0460	N.2	1	noname	0.0000
4218	C1353   -11.7820    27.3180    64.3090	C.2	1	noname	0.0000
4219	C1354   -13.3230    28.8840    64.2230	C.2	1	noname	0.0000
4220	N367   -12.6780    27.9690    65.0650	N.3	1	noname	0.0000
4221	H2051   -13.8050    28.5230    58.6630	H	1	noname	0.0000
4222	H2052   -13.9710    27.5760    61.2660	H	1	noname	0.0000
4223	H2053   -12.2700    29.8570    61.2220	H	1	noname	0.0000
4224	H2054   -13.7880    30.3440    61.9710	H	1	noname	0.0000
4225	H2055   -11.2860    27.4400    62.2580	H	1	noname	0.0000
4226	H2056   -14.1240    29.5520    64.5030	H	1	noname	0.0000
4227	H2057   -11.1320    26.5350    64.6700	H	1	noname	0.0000
4228	C1355   -17.8050    28.9970    62.6800	C.2	1	noname	0.0000
4229	C1356   -17.6710    28.3160    61.3130	C.3	1	noname	0.0000
4230	N368   -16.2550    28.1290    61.0840	N.3	1	noname	0.0000
4231	O442   -17.2030    28.5020    63.6260	O.2	1	noname	0.0000
4232	C1357   -18.2420    26.8820    61.3290	C.3	1	noname	0.0000
4233	C1358   -19.7240    26.7360    61.1490	C.2	1	noname	0.0000
4234	N369   -20.4080    26.9480    59.9750	N.2	1	noname	0.0000
4235	C1359   -21.6730    26.5320    60.1520	C.2	1	noname	0.0000
4236	C1360   -20.6010    26.1670    62.0330	C.2	1	noname	0.0000
4237	N370   -21.8350    26.0470    61.3910	N.3	1	noname	0.0000
4238	H2058   -15.8590    27.3520    61.5940	H	1	noname	0.0000
4239	H2059   -18.1210    28.9180    60.5240	H	1	noname	0.0000
4240	H2060   -17.7880    26.3190    60.5140	H	1	noname	0.0000
4241	H2061   -17.9490    26.3840    62.2530	H	1	noname	0.0000
4242	H2062   -20.0310    27.3260    59.1170	H	1	noname	0.0000
4243	H2063   -20.3650    25.8170    63.0270	H	1	noname	0.0000
4244	H2064   -22.4550    26.5750    59.4080	H	1	noname	0.0000
4245	C1361   -20.3740    31.4550    63.6810	C.2	1	noname	0.0000
4246	C1362   -19.2880    30.4290    64.0210	C.3	1	noname	0.0000
4247	N371   -18.5570    30.0880    62.7980	N.3	1	noname	0.0000
4248	O443   -20.0910    32.5170    63.1250	O.2	1	noname	0.0000
4249	C1363   -18.3740    30.8920    65.1760	C.3	1	noname	0.0000
4250	C1364   -18.2240    29.8180    66.2340	C.2	1	noname	0.0000
4251	N372   -19.2000    29.4370    67.1260	N.2	1	noname	0.0000
4252	C1365   -18.7320    28.3990    67.8410	C.2	1	noname	0.0000
4253	C1366   -17.1490    28.9930    66.4470	C.2	1	noname	0.0000
4254	N373   -17.4820    28.0910    67.4660	N.3	1	noname	0.0000
4255	H2065   -18.8650    30.5610    61.9600	H	1	noname	0.0000
4256	H2066   -19.7940    29.5240    64.3560	H	1	noname	0.0000
4257	H2067   -18.8120    31.7690    65.6520	H	1	noname	0.0000
4258	H2068   -17.3950    31.1770    64.7930	H	1	noname	0.0000
4259	H2069   -20.0860    29.9060    67.2520	H	1	noname	0.0000
4260	H2070   -16.2190    29.0090    65.8980	H	1	noname	0.0000
4261	H2071   -19.2730    27.8950    68.6270	H	1	noname	0.0000
4262	C1367   -22.6310    32.9540    65.1690	C.2	1	noname	0.0000
4263	C1368   -22.7990    31.8770    64.0950	C.3	1	noname	0.0000
4264	N374   -21.6090    31.0420    63.9630	N.3	1	noname	0.0000
4265	O444   -21.8760    32.6970    66.1370	O.2	1	noname	0.0000
4266	C1369   -23.9750    30.9600    64.4740	C.3	1	noname	0.0000
4267	C1370   -24.7200    30.4040    63.2960	C.2	1	noname	0.0000
4268	N375   -25.6570    31.1030    62.5800	N.2	1	noname	0.0000
4269	C1371   -26.1620    30.2850    61.6450	C.2	1	noname	0.0000
4270	C1372   -24.6620    29.1420    62.7700	C.2	1	noname	0.0000
4271	N376   -25.5890    29.0740    61.7210	N.3	1	noname	0.0000
4272	H2072   -21.6880    30.1320    64.3940	H	1	noname	0.0000
4273	H2073   -23.0050    32.3970    63.1590	H	1	noname	0.0000
4274	H2074   -23.6360    30.1500    65.1200	H	1	noname	0.0000
4275	H2075   -24.6920    31.5430    65.0530	H	1	noname	0.0000
4276	H2076   -25.8810    32.0770    62.7260	H	1	noname	0.0000
4277	H2077   -24.0300    28.3370    63.1140	H	1	noname	0.0000
4278	H2078   -26.9140    30.5600    60.9190	H	1	noname	0.0000
@<TRIPOS>BOND
1	1	4	2
2	1	2	1
3	2	5	1
4	2	3	1
5	2	10	1
6	3	9	1
7	5	6	1
8	5	11	1
9	5	12	1
10	6	7	1
11	6	13	1
12	6	14	1
13	7	8	1
14	8	15	1
15	8	16	1
16	8	17	1
17	18	21	2
18	18	19	1
19	19	22	1
20	19	20	1
21	19	25	1
22	22	23	1
23	22	26	1
24	22	27	1
25	23	24	1
26	23	28	1
27	23	29	1
28	24	20	1
29	24	30	1
30	24	31	1
31	32	35	2
32	32	33	1
33	33	36	1
34	33	34	1
35	33	41	1
36	34	40	1
37	36	37	1
38	36	42	1
39	36	43	1
40	37	38	1
41	37	39	1
42	37	44	1
43	38	45	1
44	38	46	1
45	38	47	1
46	39	48	1
47	39	49	1
48	39	50	1
49	51	54	2
50	51	52	1
51	52	55	1
52	52	53	1
53	52	60	1
54	53	59	1
55	55	56	1
56	55	61	1
57	55	62	1
58	56	57	1
59	56	58	1
60	56	63	1
61	57	64	1
62	57	65	1
63	57	66	1
64	58	67	1
65	58	68	1
66	58	69	1
67	70	73	2
68	70	71	1
69	71	74	1
70	71	72	1
71	71	79	1
72	72	78	1
73	74	75	1
74	74	80	1
75	74	81	1
76	75	76	1
77	75	77	1
78	75	82	1
79	76	83	1
80	76	84	1
81	76	85	1
82	77	86	1
83	77	87	1
84	77	88	1
85	89	92	2
86	89	90	1
87	90	93	1
88	90	91	1
89	90	98	1
90	91	97	1
91	93	94	1
92	93	99	1
93	93	100	1
94	94	95	1
95	94	96	1
96	94	101	1
97	95	102	1
98	95	103	1
99	95	104	1
100	96	105	1
101	96	106	1
102	96	107	1
103	108	111	2
104	108	109	1
105	109	112	1
106	109	110	1
107	109	117	1
108	110	116	1
109	112	113	1
110	112	118	1
111	112	119	1
112	113	114	1
113	113	115	1
114	113	120	1
115	114	121	1
116	114	122	1
117	114	123	1
118	115	124	1
119	115	125	1
120	115	126	1
121	127	130	2
122	127	128	1
123	128	131	1
124	128	129	1
125	128	134	1
126	131	132	1
127	131	135	1
128	131	136	1
129	132	133	1
130	132	137	1
131	132	138	1
132	133	129	1
133	133	139	1
134	133	140	1
135	141	144	2
136	141	142	1
137	142	145	1
138	142	143	1
139	142	150	1
140	143	149	1
141	145	146	1
142	145	151	1
143	145	152	1
144	146	147	1
145	146	148	1
146	146	153	1
147	147	154	1
148	147	155	1
149	147	156	1
150	148	157	1
151	148	158	1
152	148	159	1
153	160	163	2
154	160	161	1
155	161	164	1
156	161	162	1
157	161	169	1
158	162	168	1
159	164	165	1
160	164	170	1
161	164	171	1
162	165	166	1
163	165	167	1
164	165	172	1
165	166	173	1
166	166	174	1
167	166	175	1
168	167	176	1
169	167	177	1
170	167	178	1
171	179	182	2
172	179	180	1
173	180	183	1
174	180	181	1
175	180	194	1
176	181	193	1
177	183	184	1
178	183	195	1
179	183	196	1
180	184	185	2
181	184	186	1
182	185	192	1
183	185	197	1
184	186	187	2
185	186	188	1
186	187	189	1
187	187	192	1
188	188	190	2
189	188	199	1
190	189	191	2
191	189	200	1
192	190	191	1
193	190	201	1
194	191	202	1
195	192	198	1
196	203	206	2
197	203	204	1
198	204	207	1
199	204	205	1
200	204	209	1
201	205	208	1
202	207	210	1
203	207	211	1
204	207	212	1
205	213	216	2
206	213	214	1
207	214	215	1
208	214	218	1
209	214	219	1
210	215	217	1
211	220	223	2
212	220	221	1
213	221	224	1
214	221	222	1
215	221	226	1
216	222	225	1
217	224	227	1
218	224	228	1
219	224	229	1
220	230	233	2
221	230	231	1
222	231	234	1
223	231	232	1
224	231	239	1
225	232	238	1
226	234	235	1
227	234	240	1
228	234	241	1
229	235	236	1
230	235	237	1
231	235	242	1
232	236	243	1
233	236	244	1
234	236	245	1
235	237	246	1
236	237	247	1
237	237	248	1
238	249	252	2
239	249	250	1
240	250	253	1
241	250	251	1
242	250	255	1
243	251	254	1
244	253	256	1
245	253	257	1
246	253	258	1
247	259	262	2
248	259	260	1
249	260	263	1
250	260	261	1
251	260	269	1
252	261	268	1
253	263	264	1
254	263	270	1
255	263	271	1
256	264	265	1
257	264	272	1
258	264	273	1
259	265	266	2
260	265	267	1
261	274	277	2
262	274	275	1
263	275	278	1
264	275	276	1
265	275	282	1
266	276	281	1
267	278	279	1
268	278	280	1
269	278	283	1
270	279	284	1
271	279	285	1
272	279	286	1
273	280	287	1
274	280	288	1
275	280	289	1
276	290	293	2
277	290	291	1
278	291	294	1
279	291	292	1
280	291	300	1
281	292	299	1
282	294	295	1
283	294	301	1
284	294	302	1
285	295	296	1
286	295	303	1
287	295	304	1
288	296	297	2
289	296	298	1
290	298	305	1
291	298	306	1
292	307	310	2
293	307	308	1
294	308	311	1
295	308	309	1
296	308	316	1
297	309	315	1
298	311	312	1
299	311	317	1
300	311	318	1
301	312	313	1
302	312	314	1
303	312	319	1
304	313	320	1
305	313	321	1
306	313	322	1
307	314	323	1
308	314	324	1
309	314	325	1
310	326	329	2
311	326	327	1
312	327	330	1
313	327	328	1
314	327	335	1
315	328	334	1
316	330	331	1
317	330	336	1
318	330	337	1
319	331	332	1
320	331	333	1
321	331	338	1
322	332	339	1
323	332	340	1
324	332	341	1
325	333	342	1
326	333	343	1
327	333	344	1
328	345	348	2
329	345	346	1
330	346	349	1
331	346	347	1
332	346	355	1
333	347	354	1
334	349	350	1
335	349	356	1
336	349	357	1
337	350	351	1
338	350	358	1
339	350	359	1
340	351	352	2
341	351	353	1
342	360	363	2
343	360	361	1
344	361	364	1
345	361	362	1
346	361	367	1
347	362	366	1
348	364	365	1
349	364	368	1
350	364	369	1
351	365	370	1
352	371	374	2
353	371	372	1
354	372	373	1
355	372	376	1
356	372	377	1
357	373	375	1
358	378	381	2
359	378	379	1
360	379	380	1
361	379	383	1
362	379	384	1
363	380	382	1
364	385	388	2
365	385	386	1
366	386	387	1
367	386	390	1
368	386	391	1
369	387	389	1
370	392	395	2
371	392	393	1
372	393	396	1
373	393	394	1
374	393	401	1
375	394	400	1
376	396	397	1
377	396	402	1
378	396	403	1
379	397	398	1
380	397	399	1
381	397	404	1
382	398	405	1
383	398	406	1
384	398	407	1
385	399	408	1
386	399	409	1
387	399	410	1
388	411	414	2
389	411	412	1
390	412	415	1
391	412	413	1
392	412	419	1
393	413	418	1
394	415	416	1
395	415	417	1
396	415	420	1
397	416	421	1
398	416	422	1
399	416	423	1
400	417	424	1
401	417	425	1
402	417	426	1
403	427	430	2
404	427	428	1
405	428	431	1
406	428	429	1
407	428	437	1
408	429	436	1
409	431	432	1
410	431	438	1
411	431	439	1
412	432	433	1
413	432	440	1
414	432	441	1
415	433	434	2
416	433	435	1
417	435	442	1
418	435	443	1
419	444	447	2
420	444	445	1
421	445	448	1
422	445	446	1
423	445	451	1
424	448	449	1
425	448	452	1
426	448	453	1
427	449	450	1
428	449	454	1
429	449	455	1
430	450	446	1
431	450	456	1
432	450	457	1
433	458	461	2
434	458	459	1
435	459	460	1
436	459	463	1
437	459	464	1
438	460	462	1
439	465	468	2
440	465	466	1
441	466	467	1
442	466	470	1
443	466	471	1
444	467	469	1
445	472	475	2
446	472	473	1
447	473	476	1
448	473	474	1
449	473	479	1
450	474	478	1
451	476	477	1
452	476	480	1
453	476	481	1
454	477	482	1
455	483	486	2
456	483	484	1
457	484	487	1
458	484	485	1
459	484	492	1
460	485	491	1
461	487	488	1
462	487	493	1
463	487	494	1
464	488	489	1
465	488	490	1
466	488	495	1
467	489	496	1
468	489	497	1
469	489	498	1
470	490	499	1
471	490	500	1
472	490	501	1
473	502	505	2
474	502	503	1
475	503	506	1
476	503	504	1
477	503	514	1
478	504	513	1
479	506	507	1
480	506	515	1
481	506	516	1
482	507	508	1
483	507	517	1
484	507	518	1
485	508	510	1
486	508	519	1
487	508	520	1
488	509	510	1
489	509	511	1
490	509	512	2
491	510	521	1
492	511	522	1
493	511	523	1
494	512	524	1
495	512	525	1
496	526	529	2
497	526	527	1
498	527	530	1
499	527	528	1
500	527	535	1
501	528	534	1
502	530	531	1
503	530	536	1
504	530	537	1
505	531	532	1
506	531	533	1
507	531	538	1
508	532	539	1
509	532	540	1
510	532	541	1
511	533	542	1
512	533	543	1
513	533	544	1
514	545	548	2
515	545	546	1
516	546	549	1
517	546	547	1
518	546	552	1
519	547	551	1
520	549	550	1
521	549	553	1
522	549	554	1
523	550	555	1
524	556	559	2
525	556	557	1
526	557	560	1
527	557	558	1
528	557	563	1
529	558	562	1
530	560	561	1
531	560	564	1
532	560	565	1
533	566	569	2
534	566	567	1
535	567	570	1
536	567	568	1
537	567	572	1
538	568	571	1
539	570	573	1
540	570	574	1
541	570	575	1
542	576	579	2
543	576	577	1
544	577	580	1
545	577	578	1
546	577	582	1
547	578	581	1
548	580	583	1
549	580	584	1
550	580	585	1
551	586	589	2
552	586	587	1
553	587	590	1
554	587	588	1
555	587	593	1
556	588	592	1
557	590	591	1
558	590	594	1
559	590	595	1
560	591	596	1
561	597	600	2
562	597	598	1
563	598	599	1
564	598	602	1
565	598	603	1
566	599	601	1
567	604	607	2
568	604	605	1
569	605	608	1
570	605	606	1
571	605	616	1
572	606	615	1
573	608	609	1
574	608	617	1
575	608	618	1
576	609	610	1
577	609	611	2
578	610	612	2
579	610	619	1
580	611	613	1
581	611	620	1
582	612	614	1
583	612	621	1
584	613	614	2
585	613	622	1
586	614	623	1
587	624	627	2
588	624	625	1
589	625	628	1
590	625	626	1
591	625	632	1
592	626	631	1
593	628	629	1
594	628	630	1
595	628	633	1
596	629	635	1
597	629	636	1
598	629	637	1
599	630	634	1
600	638	641	2
601	638	639	1
602	639	642	1
603	639	640	1
604	639	650	1
605	640	649	1
606	642	643	1
607	642	651	1
608	642	652	1
609	643	644	1
610	643	645	2
611	644	646	2
612	644	653	1
613	645	647	1
614	645	654	1
615	646	648	1
616	646	655	1
617	647	648	2
618	647	656	1
619	648	657	1
620	658	661	2
621	658	659	1
622	659	662	1
623	659	660	1
624	659	665	1
625	660	664	1
626	662	663	1
627	662	666	1
628	662	667	1
629	663	668	1
630	669	672	2
631	669	670	1
632	670	673	1
633	670	671	1
634	670	682	1
635	671	681	1
636	673	674	1
637	673	683	1
638	673	684	1
639	674	675	1
640	674	676	2
641	675	677	2
642	675	685	1
643	676	678	1
644	676	686	1
645	677	679	1
646	677	687	1
647	678	679	2
648	678	688	1
649	679	680	1
650	680	689	1
651	690	693	2
652	690	691	1
653	691	694	1
654	691	692	1
655	691	703	1
656	692	702	1
657	694	695	1
658	694	704	1
659	694	705	1
660	695	696	1
661	695	697	2
662	696	698	2
663	696	706	1
664	697	699	1
665	697	707	1
666	698	700	1
667	698	708	1
668	699	700	2
669	699	709	1
670	700	701	1
671	701	710	1
672	711	714	2
673	711	712	1
674	712	713	1
675	712	716	1
676	712	717	1
677	713	715	1
678	718	721	2
679	718	719	1
680	719	722	1
681	719	720	1
682	719	727	1
683	720	726	1
684	722	723	1
685	722	728	1
686	722	729	1
687	723	724	1
688	723	730	1
689	723	731	1
690	724	725	1
691	725	732	1
692	725	733	1
693	725	734	1
694	735	738	2
695	735	736	1
696	736	737	1
697	736	740	1
698	736	741	1
699	737	739	1
700	742	745	2
701	742	743	1
702	743	746	1
703	743	744	1
704	743	757	1
705	744	756	1
706	746	747	1
707	746	758	1
708	746	759	1
709	747	748	2
710	747	749	1
711	748	755	1
712	748	760	1
713	749	750	2
714	749	751	1
715	750	752	1
716	750	755	1
717	751	753	2
718	751	762	1
719	752	754	2
720	752	763	1
721	753	754	1
722	753	764	1
723	754	765	1
724	755	761	1
725	766	769	2
726	766	767	1
727	767	770	1
728	767	768	1
729	767	774	1
730	768	773	1
731	770	771	1
732	770	772	1
733	770	775	1
734	771	776	1
735	771	777	1
736	771	778	1
737	772	779	1
738	772	780	1
739	772	781	1
740	782	785	2
741	782	783	1
742	783	786	1
743	783	784	1
744	783	794	1
745	784	793	1
746	786	787	1
747	786	795	1
748	786	796	1
749	787	788	1
750	787	797	1
751	787	798	1
752	788	790	1
753	788	799	1
754	788	800	1
755	789	790	1
756	789	791	1
757	789	792	2
758	790	801	1
759	791	802	1
760	791	803	1
761	792	804	1
762	792	805	1
763	806	809	2
764	806	807	1
765	807	810	1
766	807	808	1
767	807	816	1
768	808	815	1
769	810	811	1
770	810	817	1
771	810	818	1
772	811	812	1
773	811	819	1
774	811	820	1
775	812	813	2
776	812	814	1
777	814	821	1
778	814	822	1
779	823	826	2
780	823	824	1
781	824	827	1
782	824	825	1
783	824	829	1
784	825	828	1
785	827	830	1
786	827	831	1
787	827	832	1
788	833	836	2
789	833	834	1
790	834	837	1
791	834	835	1
792	834	840	1
793	837	838	1
794	837	841	1
795	837	842	1
796	838	839	1
797	838	843	1
798	838	844	1
799	839	835	1
800	839	845	1
801	839	846	1
802	847	850	2
803	847	848	1
804	848	849	1
805	848	852	1
806	848	853	1
807	849	851	1
808	854	857	2
809	854	855	1
810	855	858	1
811	855	856	1
812	855	864	1
813	856	863	1
814	858	859	1
815	858	865	1
816	858	866	1
817	859	860	1
818	859	867	1
819	859	868	1
820	860	861	1
821	860	869	1
822	860	870	1
823	861	862	1
824	861	871	1
825	861	872	1
826	862	873	1
827	862	874	1
828	862	875	1
829	876	879	2
830	876	877	1
831	877	878	1
832	877	881	1
833	877	882	1
834	878	880	1
835	883	886	2
836	883	884	1
837	884	887	1
838	884	885	1
839	884	892	1
840	885	891	1
841	887	888	1
842	887	893	1
843	887	894	1
844	888	889	1
845	888	890	1
846	888	895	1
847	889	896	1
848	889	897	1
849	889	898	1
850	890	899	1
851	890	900	1
852	890	901	1
853	902	905	2
854	902	903	1
855	903	906	1
856	903	904	1
857	903	912	1
858	904	911	1
859	906	907	1
860	906	913	1
861	906	914	1
862	907	908	1
863	907	915	1
864	907	916	1
865	908	909	2
866	908	910	1
867	917	920	2
868	917	918	1
869	918	921	1
870	918	919	1
871	918	932	1
872	919	931	1
873	921	922	1
874	921	933	1
875	921	934	1
876	922	923	2
877	922	924	1
878	923	930	1
879	923	935	1
880	924	925	2
881	924	926	1
882	925	927	1
883	925	930	1
884	926	928	2
885	926	937	1
886	927	929	2
887	927	938	1
888	928	929	1
889	928	939	1
890	929	940	1
891	930	936	1
892	941	944	2
893	941	942	1
894	942	945	1
895	942	943	1
896	942	949	1
897	943	948	1
898	945	946	1
899	945	947	1
900	945	950	1
901	946	951	1
902	946	952	1
903	946	953	1
904	947	954	1
905	947	955	1
906	947	956	1
907	957	960	2
908	957	958	1
909	958	961	1
910	958	959	1
911	958	964	1
912	959	963	1
913	961	962	1
914	961	965	1
915	961	966	1
916	962	967	1
917	968	971	2
918	968	969	1
919	969	970	1
920	969	973	1
921	969	974	1
922	970	972	1
923	975	978	2
924	975	976	1
925	976	979	1
926	976	977	1
927	976	984	1
928	977	983	1
929	979	980	1
930	979	981	1
931	979	985	1
932	980	982	1
933	980	986	1
934	980	987	1
935	981	988	1
936	981	989	1
937	981	990	1
938	982	991	1
939	982	992	1
940	982	993	1
941	994	997	2
942	994	995	1
943	995	998	1
944	995	996	1
945	995	1001	1
946	996	1000	1
947	998	999	1
948	998	1002	1
949	998	1003	1
950	999	1004	1
951	1005	1008	2
952	1005	1006	1
953	1006	1009	1
954	1006	1007	1
955	1006	1018	1
956	1007	1017	1
957	1009	1010	1
958	1009	1019	1
959	1009	1020	1
960	1010	1011	1
961	1010	1012	2
962	1011	1013	2
963	1011	1021	1
964	1012	1014	1
965	1012	1022	1
966	1013	1015	1
967	1013	1023	1
968	1014	1015	2
969	1014	1024	1
970	1015	1016	1
971	1016	1025	1
972	1026	1029	2
973	1026	1027	1
974	1027	1030	1
975	1027	1028	1
976	1027	1033	1
977	1028	1032	1
978	1030	1031	1
979	1030	1034	1
980	1030	1035	1
981	1031	1036	1
982	1037	1040	2
983	1037	1038	1
984	1038	1039	1
985	1038	1042	1
986	1038	1043	1
987	1039	1041	1
988	1044	1047	2
989	1044	1045	1
990	1045	1048	1
991	1045	1046	1
992	1045	1051	1
993	1046	1050	1
994	1048	1049	1
995	1048	1052	1
996	1048	1053	1
997	1049	1054	1
998	1055	1058	2
999	1055	1056	1
1000	1056	1057	1
1001	1056	1060	1
1002	1056	1061	1
1003	1057	1059	1
1004	1062	1065	2
1005	1062	1063	1
1006	1063	1066	1
1007	1063	1064	1
1008	1063	1070	1
1009	1064	1069	1
1010	1066	1067	1
1011	1066	1068	1
1012	1066	1071	1
1013	1067	1073	1
1014	1067	1074	1
1015	1067	1075	1
1016	1068	1072	1
1017	1076	1079	2
1018	1076	1077	1
1019	1077	1080	1
1020	1077	1078	1
1021	1077	1089	1
1022	1078	1088	1
1023	1080	1081	1
1024	1080	1090	1
1025	1080	1091	1
1026	1081	1082	1
1027	1081	1083	2
1028	1082	1084	2
1029	1082	1092	1
1030	1083	1085	1
1031	1083	1093	1
1032	1084	1086	1
1033	1084	1094	1
1034	1085	1086	2
1035	1085	1095	1
1036	1086	1087	1
1037	1087	1096	1
1038	1097	1100	2
1039	1097	1098	1
1040	1098	1101	1
1041	1098	1099	1
1042	1098	1110	1
1043	1099	1109	1
1044	1101	1102	1
1045	1101	1111	1
1046	1101	1112	1
1047	1102	1103	1
1048	1102	1104	2
1049	1103	1105	2
1050	1103	1113	1
1051	1104	1106	1
1052	1104	1114	1
1053	1105	1107	1
1054	1105	1115	1
1055	1106	1107	2
1056	1106	1116	1
1057	1107	1108	1
1058	1108	1117	1
1059	1118	1121	2
1060	1118	1119	1
1061	1119	1122	1
1062	1119	1120	1
1063	1119	1124	1
1064	1120	1123	1
1065	1122	1125	1
1066	1122	1126	1
1067	1122	1127	1
1068	1128	1131	2
1069	1128	1129	1
1070	1129	1132	1
1071	1129	1130	1
1072	1129	1137	1
1073	1130	1136	1
1074	1132	1133	1
1075	1132	1138	1
1076	1132	1139	1
1077	1133	1134	2
1078	1133	1135	1
1079	1140	1143	2
1080	1140	1141	1
1081	1141	1144	1
1082	1141	1142	1
1083	1141	1147	1
1084	1142	1146	1
1085	1144	1145	1
1086	1144	1148	1
1087	1144	1149	1
1088	1145	1150	1
1089	1151	1154	2
1090	1151	1152	1
1091	1152	1155	1
1092	1152	1153	1
1093	1152	1159	1
1094	1153	1158	1
1095	1155	1156	1
1096	1155	1157	1
1097	1155	1160	1
1098	1156	1161	1
1099	1156	1162	1
1100	1156	1163	1
1101	1157	1164	1
1102	1157	1165	1
1103	1157	1166	1
1104	1167	1170	2
1105	1167	1168	1
1106	1168	1171	1
1107	1168	1169	1
1108	1168	1177	1
1109	1169	1176	1
1110	1171	1172	1
1111	1171	1178	1
1112	1171	1179	1
1113	1172	1173	1
1114	1172	1180	1
1115	1172	1181	1
1116	1173	1174	1
1117	1173	1182	1
1118	1173	1183	1
1119	1174	1175	1
1120	1174	1184	1
1121	1174	1185	1
1122	1175	1186	1
1123	1175	1187	1
1124	1175	1188	1
1125	1189	1192	2
1126	1189	1190	1
1127	1190	1191	1
1128	1190	1194	1
1129	1190	1195	1
1130	1191	1193	1
1131	1196	1199	2
1132	1196	1197	1
1133	1197	1200	1
1134	1197	1198	1
1135	1197	1208	1
1136	1198	1207	1
1137	1200	1201	1
1138	1200	1209	1
1139	1200	1210	1
1140	1201	1202	1
1141	1201	1211	1
1142	1201	1212	1
1143	1202	1204	1
1144	1202	1213	1
1145	1202	1214	1
1146	1203	1204	1
1147	1203	1205	1
1148	1203	1206	2
1149	1204	1215	1
1150	1205	1216	1
1151	1205	1217	1
1152	1206	1218	1
1153	1206	1219	1
1154	1220	1223	2
1155	1220	1221	1
1156	1221	1224	1
1157	1221	1222	1
1158	1221	1232	1
1159	1222	1231	1
1160	1224	1225	1
1161	1224	1233	1
1162	1224	1234	1
1163	1225	1226	1
1164	1225	1227	2
1165	1226	1228	2
1166	1226	1235	1
1167	1227	1229	1
1168	1227	1236	1
1169	1228	1230	1
1170	1228	1237	1
1171	1229	1230	2
1172	1229	1238	1
1173	1230	1239	1
1174	1240	1243	2
1175	1240	1241	1
1176	1241	1244	1
1177	1241	1242	1
1178	1241	1248	1
1179	1242	1247	1
1180	1244	1245	1
1181	1244	1246	1
1182	1244	1249	1
1183	1245	1251	1
1184	1245	1252	1
1185	1245	1253	1
1186	1246	1250	1
1187	1254	1257	2
1188	1254	1255	1
1189	1255	1258	1
1190	1255	1256	1
1191	1255	1263	1
1192	1256	1262	1
1193	1258	1259	1
1194	1258	1260	1
1195	1258	1264	1
1196	1259	1261	1
1197	1259	1265	1
1198	1259	1266	1
1199	1260	1267	1
1200	1260	1268	1
1201	1260	1269	1
1202	1261	1270	1
1203	1261	1271	1
1204	1261	1272	1
1205	1273	1276	2
1206	1273	1274	1
1207	1274	1277	1
1208	1274	1275	1
1209	1274	1280	1
1210	1275	1279	1
1211	1277	1278	1
1212	1277	1281	1
1213	1277	1282	1
1214	1278	1283	1
1215	1284	1287	2
1216	1284	1285	1
1217	1285	1288	1
1218	1285	1286	1
1219	1285	1296	1
1220	1286	1295	1
1221	1288	1289	1
1222	1288	1297	1
1223	1288	1298	1
1224	1289	1290	1
1225	1289	1299	1
1226	1289	1300	1
1227	1290	1292	1
1228	1290	1301	1
1229	1290	1302	1
1230	1291	1292	1
1231	1291	1293	1
1232	1291	1294	2
1233	1292	1303	1
1234	1293	1304	1
1235	1293	1305	1
1236	1294	1306	1
1237	1294	1307	1
1238	1308	1311	2
1239	1308	1309	1
1240	1309	1312	1
1241	1309	1310	1
1242	1309	1317	1
1243	1310	1316	1
1244	1312	1313	1
1245	1312	1318	1
1246	1312	1319	1
1247	1313	1314	2
1248	1313	1315	1
1249	1320	1323	2
1250	1320	1321	1
1251	1321	1324	1
1252	1321	1322	1
1253	1321	1329	1
1254	1322	1328	1
1255	1324	1325	1
1256	1324	1330	1
1257	1324	1331	1
1258	1325	1326	2
1259	1325	1327	1
1260	1327	1332	1
1261	1327	1333	1
1262	1334	1337	2
1263	1334	1335	1
1264	1335	1338	1
1265	1335	1336	1
1266	1335	1341	1
1267	1336	1340	1
1268	1338	1339	1
1269	1338	1342	1
1270	1338	1343	1
1271	1339	1344	1
1272	1345	1348	2
1273	1345	1346	1
1274	1346	1349	1
1275	1346	1347	1
1276	1346	1355	1
1277	1347	1354	1
1278	1349	1350	1
1279	1349	1356	1
1280	1349	1357	1
1281	1350	1351	1
1282	1350	1358	1
1283	1350	1359	1
1284	1351	1352	1
1285	1351	1360	1
1286	1351	1361	1
1287	1352	1353	1
1288	1352	1362	1
1289	1352	1363	1
1290	1353	1364	1
1291	1353	1365	1
1292	1353	1366	1
1293	1367	1370	2
1294	1367	1368	1
1295	1368	1371	1
1296	1368	1369	1
1297	1368	1376	1
1298	1369	1375	1
1299	1371	1372	1
1300	1371	1377	1
1301	1371	1378	1
1302	1372	1373	2
1303	1372	1374	1
1304	1374	1379	1
1305	1374	1380	1
1306	1381	1384	2
1307	1381	1382	1
1308	1382	1385	1
1309	1382	1383	1
1310	1382	1389	1
1311	1383	1388	1
1312	1385	1386	1
1313	1385	1387	1
1314	1385	1390	1
1315	1386	1392	1
1316	1386	1393	1
1317	1386	1394	1
1318	1387	1391	1
1319	1395	1398	2
1320	1395	1396	1
1321	1396	1399	1
1322	1396	1397	1
1323	1396	1404	1
1324	1397	1403	1
1325	1399	1400	1
1326	1399	1405	1
1327	1399	1406	1
1328	1400	1401	1
1329	1400	1402	1
1330	1400	1407	1
1331	1401	1408	1
1332	1401	1409	1
1333	1401	1410	1
1334	1402	1411	1
1335	1402	1412	1
1336	1402	1413	1
1337	1414	1417	2
1338	1414	1415	1
1339	1415	1418	1
1340	1415	1416	1
1341	1415	1427	1
1342	1416	1426	1
1343	1418	1419	1
1344	1418	1428	1
1345	1418	1429	1
1346	1419	1420	1
1347	1419	1421	2
1348	1420	1422	2
1349	1420	1430	1
1350	1421	1423	1
1351	1421	1431	1
1352	1422	1424	1
1353	1422	1432	1
1354	1423	1424	2
1355	1423	1433	1
1356	1424	1425	1
1357	1425	1434	1
1358	1435	1438	2
1359	1435	1436	1
1360	1436	1439	1
1361	1436	1437	1
1362	1436	1444	1
1363	1437	1443	1
1364	1439	1440	1
1365	1439	1445	1
1366	1439	1446	1
1367	1440	1441	1
1368	1440	1442	1
1369	1440	1447	1
1370	1441	1448	1
1371	1441	1449	1
1372	1441	1450	1
1373	1442	1451	1
1374	1442	1452	1
1375	1442	1453	1
1376	1454	1457	2
1377	1454	1455	1
1378	1455	1458	1
1379	1455	1456	1
1380	1455	1464	1
1381	1456	1463	1
1382	1458	1459	1
1383	1458	1465	1
1384	1458	1466	1
1385	1459	1460	1
1386	1459	1467	1
1387	1459	1468	1
1388	1460	1461	2
1389	1460	1462	1
1390	1462	1469	1
1391	1462	1470	1
1392	1471	1474	2
1393	1471	1472	1
1394	1472	1475	1
1395	1472	1473	1
1396	1472	1480	1
1397	1473	1479	1
1398	1475	1476	1
1399	1475	1481	1
1400	1475	1482	1
1401	1476	1477	1
1402	1476	1483	1
1403	1476	1484	1
1404	1477	1478	1
1405	1478	1485	1
1406	1478	1486	1
1407	1478	1487	1
1408	1488	1491	2
1409	1488	1489	1
1410	1489	1492	1
1411	1489	1490	1
1412	1489	1497	1
1413	1490	1496	1
1414	1492	1493	1
1415	1492	1498	1
1416	1492	1499	1
1417	1493	1494	2
1418	1493	1495	1
1419	1495	1500	1
1420	1495	1501	1
1421	1502	1505	2
1422	1502	1503	1
1423	1503	1506	1
1424	1503	1504	1
1425	1503	1509	1
1426	1504	1508	1
1427	1506	1507	1
1428	1506	1510	1
1429	1506	1511	1
1430	1507	1512	1
1431	1513	1516	2
1432	1513	1514	1
1433	1514	1517	1
1434	1514	1515	1
1435	1514	1522	1
1436	1515	1521	1
1437	1517	1518	1
1438	1517	1523	1
1439	1517	1524	1
1440	1518	1519	1
1441	1518	1520	1
1442	1518	1525	1
1443	1519	1526	1
1444	1519	1527	1
1445	1519	1528	1
1446	1520	1529	1
1447	1520	1530	1
1448	1520	1531	1
1449	1532	1535	2
1450	1532	1533	1
1451	1533	1536	1
1452	1533	1534	1
1453	1533	1544	1
1454	1534	1543	1
1455	1536	1537	1
1456	1536	1545	1
1457	1536	1546	1
1458	1537	1538	1
1459	1537	1547	1
1460	1537	1548	1
1461	1538	1540	1
1462	1538	1549	1
1463	1538	1550	1
1464	1539	1540	1
1465	1539	1541	1
1466	1539	1542	2
1467	1540	1551	1
1468	1541	1552	1
1469	1541	1553	1
1470	1542	1554	1
1471	1542	1555	1
1472	1556	1559	2
1473	1556	1557	1
1474	1557	1560	1
1475	1557	1558	1
1476	1557	1562	1
1477	1558	1561	1
1478	1560	1563	1
1479	1560	1564	1
1480	1560	1565	1
1481	1566	1569	2
1482	1566	1567	1
1483	1567	1570	1
1484	1567	1568	1
1485	1567	1576	1
1486	1568	1575	1
1487	1570	1571	1
1488	1570	1577	1
1489	1570	1578	1
1490	1571	1572	1
1491	1571	1579	1
1492	1571	1580	1
1493	1572	1573	2
1494	1572	1574	1
1495	1581	1584	2
1496	1581	1582	1
1497	1582	1585	1
1498	1582	1583	1
1499	1582	1590	1
1500	1583	1589	1
1501	1585	1586	1
1502	1585	1591	1
1503	1585	1592	1
1504	1586	1587	2
1505	1586	1588	1
1506	1593	1596	2
1507	1593	1594	1
1508	1594	1597	1
1509	1594	1595	1
1510	1594	1601	1
1511	1595	1600	1
1512	1597	1598	1
1513	1597	1599	1
1514	1597	1602	1
1515	1598	1604	1
1516	1598	1605	1
1517	1598	1606	1
1518	1599	1603	1
1519	1607	1610	2
1520	1607	1608	1
1521	1608	1611	1
1522	1608	1609	1
1523	1608	1613	1
1524	1609	1612	1
1525	1611	1614	1
1526	1611	1615	1
1527	1611	1616	1
1528	1617	1620	2
1529	1617	1618	1
1530	1618	1621	1
1531	1618	1619	1
1532	1618	1625	1
1533	1619	1624	1
1534	1621	1622	1
1535	1621	1623	1
1536	1621	1626	1
1537	1622	1627	1
1538	1622	1628	1
1539	1622	1629	1
1540	1623	1630	1
1541	1623	1631	1
1542	1623	1632	1
1543	1633	1636	2
1544	1633	1634	1
1545	1634	1637	1
1546	1634	1635	1
1547	1634	1646	1
1548	1635	1645	1
1549	1637	1638	1
1550	1637	1647	1
1551	1637	1648	1
1552	1638	1639	1
1553	1638	1640	2
1554	1639	1641	2
1555	1639	1649	1
1556	1640	1642	1
1557	1640	1650	1
1558	1641	1643	1
1559	1641	1651	1
1560	1642	1643	2
1561	1642	1652	1
1562	1643	1644	1
1563	1644	1653	1
1564	1654	1657	2
1565	1654	1655	1
1566	1655	1658	1
1567	1655	1656	1
1568	1655	1667	1
1569	1656	1666	1
1570	1658	1659	1
1571	1658	1668	1
1572	1658	1669	1
1573	1659	1660	1
1574	1659	1661	2
1575	1660	1662	2
1576	1660	1670	1
1577	1661	1663	1
1578	1661	1671	1
1579	1662	1664	1
1580	1662	1672	1
1581	1663	1664	2
1582	1663	1673	1
1583	1664	1665	1
1584	1665	1674	1
1585	1675	1678	2
1586	1675	1676	1
1587	1676	1679	1
1588	1676	1677	1
1589	1676	1682	1
1590	1677	1681	1
1591	1679	1680	1
1592	1679	1683	1
1593	1679	1684	1
1594	1685	1688	2
1595	1685	1686	1
1596	1686	1689	1
1597	1686	1687	1
1598	1686	1691	1
1599	1687	1690	1
1600	1689	1692	1
1601	1689	1693	1
1602	1689	1694	1
1603	1695	1698	2
1604	1695	1696	1
1605	1696	1699	1
1606	1696	1697	1
1607	1696	1707	1
1608	1697	1706	1
1609	1699	1700	1
1610	1699	1708	1
1611	1699	1709	1
1612	1700	1701	1
1613	1700	1710	1
1614	1700	1711	1
1615	1701	1703	1
1616	1701	1712	1
1617	1701	1713	1
1618	1702	1703	1
1619	1702	1704	1
1620	1702	1705	2
1621	1703	1714	1
1622	1704	1715	1
1623	1704	1716	1
1624	1705	1717	1
1625	1705	1718	1
1626	1719	1722	2
1627	1719	1720	1
1628	1720	1723	1
1629	1720	1721	1
1630	1720	1728	1
1631	1721	1727	1
1632	1723	1724	1
1633	1723	1729	1
1634	1723	1730	1
1635	1724	1725	2
1636	1724	1726	1
1637	1731	1734	2
1638	1731	1732	1
1639	1732	1735	1
1640	1732	1733	1
1641	1732	1744	1
1642	1733	1743	1
1643	1735	1736	1
1644	1735	1745	1
1645	1735	1746	1
1646	1736	1737	1
1647	1736	1738	2
1648	1737	1739	2
1649	1737	1747	1
1650	1738	1740	1
1651	1738	1748	1
1652	1739	1741	1
1653	1739	1749	1
1654	1740	1741	2
1655	1740	1750	1
1656	1741	1742	1
1657	1742	1751	1
1658	1752	1755	2
1659	1752	1753	1
1660	1753	1756	1
1661	1753	1754	1
1662	1753	1760	1
1663	1754	1759	1
1664	1756	1757	1
1665	1756	1758	1
1666	1756	1761	1
1667	1757	1762	1
1668	1757	1763	1
1669	1757	1764	1
1670	1758	1765	1
1671	1758	1766	1
1672	1758	1767	1
1673	1768	1771	2
1674	1768	1769	1
1675	1769	1770	1
1676	1769	1773	1
1677	1769	1774	1
1678	1770	1772	1
1679	1775	1778	2
1680	1775	1776	1
1681	1776	1779	1
1682	1776	1777	1
1683	1776	1784	1
1684	1777	1783	1
1685	1779	1780	1
1686	1779	1785	1
1687	1779	1786	1
1688	1780	1781	2
1689	1780	1782	1
1690	1782	1787	1
1691	1782	1788	1
1692	1789	1792	2
1693	1789	1790	1
1694	1790	1793	1
1695	1790	1791	1
1696	1790	1798	1
1697	1791	1797	1
1698	1793	1794	1
1699	1793	1799	1
1700	1793	1800	1
1701	1794	1795	1
1702	1794	1796	1
1703	1794	1801	1
1704	1795	1802	1
1705	1795	1803	1
1706	1795	1804	1
1707	1796	1805	1
1708	1796	1806	1
1709	1796	1807	1
1710	1808	1811	2
1711	1808	1809	1
1712	1809	1812	1
1713	1809	1810	1
1714	1809	1817	1
1715	1810	1816	1
1716	1812	1813	1
1717	1812	1818	1
1718	1812	1819	1
1719	1813	1814	2
1720	1813	1815	1
1721	1820	1823	2
1722	1820	1821	1
1723	1821	1824	1
1724	1821	1822	1
1725	1821	1833	1
1726	1822	1832	1
1727	1824	1825	1
1728	1824	1834	1
1729	1824	1835	1
1730	1825	1826	1
1731	1825	1827	2
1732	1826	1828	2
1733	1826	1836	1
1734	1827	1829	1
1735	1827	1837	1
1736	1828	1830	1
1737	1828	1838	1
1738	1829	1830	2
1739	1829	1839	1
1740	1830	1831	1
1741	1831	1840	1
1742	1841	1844	2
1743	1841	1842	1
1744	1842	1845	1
1745	1842	1843	1
1746	1842	1856	1
1747	1843	1855	1
1748	1845	1846	1
1749	1845	1857	1
1750	1845	1858	1
1751	1846	1847	2
1752	1846	1848	1
1753	1847	1854	1
1754	1847	1859	1
1755	1848	1849	2
1756	1848	1850	1
1757	1849	1851	1
1758	1849	1854	1
1759	1850	1852	2
1760	1850	1861	1
1761	1851	1853	2
1762	1851	1862	1
1763	1852	1853	1
1764	1852	1863	1
1765	1853	1864	1
1766	1854	1860	1
1767	1865	1868	2
1768	1865	1866	1
1769	1866	1867	1
1770	1866	1870	1
1771	1866	1871	1
1772	1867	1869	1
1773	1872	1875	2
1774	1872	1873	1
1775	1873	1876	1
1776	1873	1874	1
1777	1873	1882	1
1778	1874	1881	1
1779	1876	1877	1
1780	1876	1883	1
1781	1876	1884	1
1782	1877	1878	1
1783	1877	1885	1
1784	1877	1886	1
1785	1878	1879	2
1786	1878	1880	1
1787	1880	1887	1
1788	1880	1888	1
1789	1889	1892	2
1790	1889	1890	1
1791	1890	1891	1
1792	1890	1894	1
1793	1890	1895	1
1794	1891	1893	1
1795	1896	1899	2
1796	1896	1897	1
1797	1897	1900	1
1798	1897	1898	1
1799	1897	1904	1
1800	1898	1903	1
1801	1900	1901	1
1802	1900	1902	1
1803	1900	1905	1
1804	1901	1907	1
1805	1901	1908	1
1806	1901	1909	1
1807	1902	1906	1
1808	1910	1913	2
1809	1910	1911	1
1810	1911	1914	1
1811	1911	1912	1
1812	1911	1919	1
1813	1912	1918	1
1814	1914	1915	1
1815	1914	1920	1
1816	1914	1921	1
1817	1915	1916	1
1818	1915	1917	1
1819	1915	1922	1
1820	1916	1923	1
1821	1916	1924	1
1822	1916	1925	1
1823	1917	1926	1
1824	1917	1927	1
1825	1917	1928	1
1826	1929	1932	2
1827	1929	1930	1
1828	1930	1933	1
1829	1930	1931	1
1830	1930	1937	1
1831	1931	1936	1
1832	1933	1934	1
1833	1933	1935	1
1834	1933	1938	1
1835	1934	1939	1
1836	1934	1940	1
1837	1934	1941	1
1838	1935	1942	1
1839	1935	1943	1
1840	1935	1944	1
1841	1945	1948	2
1842	1945	1946	1
1843	1946	1949	1
1844	1946	1947	1
1845	1946	1953	1
1846	1947	1952	1
1847	1949	1950	1
1848	1949	1951	1
1849	1949	1954	1
1850	1950	1956	1
1851	1950	1957	1
1852	1950	1958	1
1853	1951	1955	1
1854	1959	1962	2
1855	1959	1960	1
1856	1960	1963	1
1857	1960	1961	1
1858	1960	1967	1
1859	1961	1966	1
1860	1963	1964	1
1861	1963	1965	1
1862	1963	1968	1
1863	1964	1969	1
1864	1964	1970	1
1865	1964	1971	1
1866	1965	1972	1
1867	1965	1973	1
1868	1965	1974	1
1869	1975	1978	2
1870	1975	1976	1
1871	1976	1979	1
1872	1976	1977	1
1873	1976	1982	1
1874	1977	1981	1
1875	1979	1980	1
1876	1979	1983	1
1877	1979	1984	1
1878	1980	1985	1
1879	1986	1989	2
1880	1986	1987	1
1881	1987	1990	1
1882	1987	1988	1
1883	1987	1993	1
1884	1988	1992	1
1885	1990	1991	1
1886	1990	1994	1
1887	1990	1995	1
1888	1991	1996	1
1889	1997	2000	2
1890	1997	1998	1
1891	1998	1999	1
1892	1998	2002	1
1893	1998	2003	1
1894	1999	2001	1
1895	2004	2007	2
1896	2004	2005	1
1897	2005	2006	1
1898	2005	2009	1
1899	2005	2010	1
1900	2006	2008	1
1901	2011	2014	2
1902	2011	2012	1
1903	2012	2013	1
1904	2012	2016	1
1905	2012	2017	1
1906	2013	2015	1
1907	2018	2021	2
1908	2018	2019	1
1909	2019	2020	1
1910	2019	2023	1
1911	2019	2024	1
1912	2020	2022	1
1913	2025	2028	2
1914	2025	2026	1
1915	2026	2029	1
1916	2026	2027	1
1917	2026	2032	1
1918	2027	2031	1
1919	2029	2030	1
1920	2029	2033	1
1921	2029	2034	1
1922	2030	2035	1
1923	2036	2039	2
1924	2036	2037	1
1925	2037	2038	1
1926	2037	2041	1
1927	2037	2042	1
1928	2038	2040	1
1929	2043	2046	2
1930	2043	2044	1
1931	2044	2045	1
1932	2044	2048	1
1933	2044	2049	1
1934	2045	2047	1
1935	2050	2053	2
1936	2050	2051	1
1937	2051	2052	1
1938	2051	2055	1
1939	2051	2056	1
1940	2052	2054	1
1941	2057	2060	2
1942	2057	2058	1
1943	2058	2059	1
1944	2058	2062	1
1945	2058	2063	1
1946	2059	2061	1
1947	2064	2067	2
1948	2064	2065	1
1949	2065	2068	1
1950	2065	2066	1
1951	2065	2071	1
1952	2066	2070	1
1953	2068	2069	1
1954	2068	2072	1
1955	2068	2073	1
1956	2069	2074	1
1957	2075	2078	2
1958	2075	2076	1
1959	2076	2077	1
1960	2076	2080	1
1961	2076	2081	1
1962	2077	2079	1
1963	2082	2085	2
1964	2082	2083	1
1965	2083	2084	1
1966	2083	2087	1
1967	2083	2088	1
1968	2084	2086	1
1969	2089	2092	2
1970	2089	2090	1
1971	2090	2091	1
1972	2090	2094	1
1973	2090	2095	1
1974	2091	2093	1
1975	2096	2099	2
1976	2096	2097	1
1977	2097	2098	1
1978	2097	2101	1
1979	2097	2102	1
1980	2098	2100	1
1981	2103	2106	2
1982	2103	2104	1
1983	2104	2107	1
1984	2104	2105	1
1985	2104	2110	1
1986	2105	2109	1
1987	2107	2108	1
1988	2107	2111	1
1989	2107	2112	1
1990	2108	2113	1
1991	2114	2117	2
1992	2114	2115	1
1993	2115	2118	1
1994	2115	2116	1
1995	2115	2123	1
1996	2116	2122	1
1997	2118	2119	1
1998	2118	2124	1
1999	2118	2125	1
2000	2119	2120	2
2001	2119	2121	1
2002	2126	2129	2
2003	2126	2127	1
2004	2127	2130	1
2005	2127	2128	1
2006	2127	2135	1
2007	2128	2134	1
2008	2130	2131	1
2009	2130	2132	1
2010	2130	2136	1
2011	2131	2133	1
2012	2131	2137	1
2013	2131	2138	1
2014	2132	2139	1
2015	2132	2140	1
2016	2132	2141	1
2017	2133	2142	1
2018	2133	2143	1
2019	2133	2144	1
2020	2145	2148	2
2021	2145	2146	1
2022	2146	2149	1
2023	2146	2147	1
2024	2146	2155	1
2025	2147	2154	1
2026	2149	2150	1
2027	2149	2156	1
2028	2149	2157	1
2029	2150	2151	1
2030	2150	2158	1
2031	2150	2159	1
2032	2151	2152	2
2033	2151	2153	1
2034	2153	2160	1
2035	2153	2161	1
2036	2162	2165	2
2037	2162	2163	1
2038	2163	2166	1
2039	2163	2164	1
2040	2163	2171	1
2041	2164	2170	1
2042	2166	2167	1
2043	2166	2172	1
2044	2166	2173	1
2045	2167	2168	1
2046	2167	2174	1
2047	2167	2175	1
2048	2168	2169	1
2049	2169	2176	1
2050	2169	2177	1
2051	2169	2178	1
2052	2179	2182	2
2053	2179	2180	1
2054	2180	2183	1
2055	2180	2181	1
2056	2180	2187	1
2057	2181	2186	1
2058	2183	2184	1
2059	2183	2185	1
2060	2183	2188	1
2061	2184	2190	1
2062	2184	2191	1
2063	2184	2192	1
2064	2185	2189	1
2065	2193	2196	2
2066	2193	2194	1
2067	2194	2197	1
2068	2194	2195	1
2069	2194	2203	1
2070	2195	2202	1
2071	2197	2198	1
2072	2197	2204	1
2073	2197	2205	1
2074	2198	2199	1
2075	2198	2206	1
2076	2198	2207	1
2077	2199	2200	2
2078	2199	2201	1
2079	2201	2208	1
2080	2201	2209	1
2081	2210	2213	2
2082	2210	2211	1
2083	2211	2214	1
2084	2211	2212	1
2085	2211	2217	1
2086	2212	2216	1
2087	2214	2215	1
2088	2214	2218	1
2089	2214	2219	1
2090	2215	2220	1
2091	2221	2224	2
2092	2221	2222	1
2093	2222	2225	1
2094	2222	2223	1
2095	2222	2228	1
2096	2225	2226	1
2097	2225	2229	1
2098	2225	2230	1
2099	2226	2227	1
2100	2226	2231	1
2101	2226	2232	1
2102	2227	2223	1
2103	2227	2233	1
2104	2227	2234	1
2105	2235	2238	2
2106	2235	2236	1
2107	2236	2239	1
2108	2236	2237	1
2109	2236	2242	1
2110	2237	2241	1
2111	2239	2240	1
2112	2239	2243	1
2113	2239	2244	1
2114	2240	2245	1
2115	2246	2249	2
2116	2246	2247	1
2117	2247	2250	1
2118	2247	2248	1
2119	2247	2253	1
2120	2248	2252	1
2121	2250	2251	1
2122	2250	2254	1
2123	2250	2255	1
2124	2251	2256	1
2125	2257	2260	2
2126	2257	2258	1
2127	2258	2261	1
2128	2258	2259	1
2129	2258	2266	1
2130	2259	2265	1
2131	2261	2262	1
2132	2261	2267	1
2133	2261	2268	1
2134	2262	2263	1
2135	2262	2264	1
2136	2262	2269	1
2137	2263	2270	1
2138	2263	2271	1
2139	2263	2272	1
2140	2264	2273	1
2141	2264	2274	1
2142	2264	2275	1
2143	2276	2279	2
2144	2276	2277	1
2145	2277	2280	1
2146	2277	2278	1
2147	2277	2283	1
2148	2278	2282	1
2149	2280	2281	1
2150	2280	2284	1
2151	2280	2285	1
2152	2281	2286	1
2153	2287	2290	2
2154	2287	2288	1
2155	2288	2291	1
2156	2288	2289	1
2157	2288	2293	1
2158	2289	2292	1
2159	2291	2294	1
2160	2291	2295	1
2161	2291	2296	1
2162	2297	2300	2
2163	2297	2298	1
2164	2298	2301	1
2165	2298	2299	1
2166	2298	2304	1
2167	2299	2303	1
2168	2301	2302	1
2169	2301	2305	1
2170	2301	2306	1
2171	2302	2307	1
2172	2308	2311	2
2173	2308	2309	1
2174	2309	2312	1
2175	2309	2310	1
2176	2309	2316	1
2177	2310	2315	1
2178	2312	2313	1
2179	2312	2314	1
2180	2312	2317	1
2181	2313	2318	1
2182	2313	2319	1
2183	2313	2320	1
2184	2314	2321	1
2185	2314	2322	1
2186	2314	2323	1
2187	2324	2327	2
2188	2324	2325	1
2189	2325	2326	1
2190	2325	2329	1
2191	2325	2330	1
2192	2326	2328	1
2193	2331	2334	2
2194	2331	2332	1
2195	2332	2335	1
2196	2332	2333	1
2197	2332	2340	1
2198	2333	2339	1
2199	2335	2336	1
2200	2335	2341	1
2201	2335	2342	1
2202	2336	2337	2
2203	2336	2338	1
2204	2343	2346	2
2205	2343	2344	1
2206	2344	2347	1
2207	2344	2345	1
2208	2344	2355	1
2209	2345	2354	1
2210	2347	2348	1
2211	2347	2356	1
2212	2347	2357	1
2213	2348	2349	1
2214	2348	2358	1
2215	2348	2359	1
2216	2349	2351	1
2217	2349	2360	1
2218	2349	2361	1
2219	2350	2351	1
2220	2350	2352	1
2221	2350	2353	2
2222	2351	2362	1
2223	2352	2363	1
2224	2352	2364	1
2225	2353	2365	1
2226	2353	2366	1
2227	2367	2370	2
2228	2367	2368	1
2229	2368	2371	1
2230	2368	2369	1
2231	2368	2375	1
2232	2369	2374	1
2233	2371	2372	1
2234	2371	2373	1
2235	2371	2376	1
2236	2372	2377	1
2237	2372	2378	1
2238	2372	2379	1
2239	2373	2380	1
2240	2373	2381	1
2241	2373	2382	1
2242	2383	2386	2
2243	2383	2384	1
2244	2384	2387	1
2245	2384	2385	1
2246	2384	2391	1
2247	2385	2390	1
2248	2387	2388	1
2249	2387	2389	1
2250	2387	2392	1
2251	2388	2394	1
2252	2388	2395	1
2253	2388	2396	1
2254	2389	2393	1
2255	2397	2400	2
2256	2397	2398	1
2257	2398	2401	1
2258	2398	2399	1
2259	2398	2406	1
2260	2399	2405	1
2261	2401	2402	1
2262	2401	2403	1
2263	2401	2407	1
2264	2402	2404	1
2265	2402	2408	1
2266	2402	2409	1
2267	2403	2410	1
2268	2403	2411	1
2269	2403	2412	1
2270	2404	2413	1
2271	2404	2414	1
2272	2404	2415	1
2273	2416	2419	2
2274	2416	2417	1
2275	2417	2420	1
2276	2417	2418	1
2277	2417	2424	1
2278	2418	2423	1
2279	2420	2421	1
2280	2420	2422	1
2281	2420	2425	1
2282	2421	2427	1
2283	2421	2428	1
2284	2421	2429	1
2285	2422	2426	1
2286	2430	2433	2
2287	2430	2431	1
2288	2431	2434	1
2289	2431	2432	1
2290	2431	2437	1
2291	2432	2436	1
2292	2434	2435	1
2293	2434	2438	1
2294	2434	2439	1
2295	2440	2443	2
2296	2440	2441	1
2297	2441	2444	1
2298	2441	2442	1
2299	2441	2452	1
2300	2442	2451	1
2301	2444	2445	1
2302	2444	2453	1
2303	2444	2454	1
2304	2445	2446	1
2305	2445	2455	1
2306	2445	2456	1
2307	2446	2448	1
2308	2446	2457	1
2309	2446	2458	1
2310	2447	2448	1
2311	2447	2449	1
2312	2447	2450	2
2313	2448	2459	1
2314	2449	2460	1
2315	2449	2461	1
2316	2450	2462	1
2317	2450	2463	1
2318	2464	2467	2
2319	2464	2465	1
2320	2465	2468	1
2321	2465	2466	1
2322	2465	2470	1
2323	2466	2469	1
2324	2468	2471	1
2325	2468	2472	1
2326	2468	2473	1
2327	2474	2477	2
2328	2474	2475	1
2329	2475	2478	1
2330	2475	2476	1
2331	2475	2481	1
2332	2476	2480	1
2333	2478	2479	1
2334	2478	2482	1
2335	2478	2483	1
2336	2479	2484	1
2337	2485	2488	2
2338	2485	2486	1
2339	2486	2489	1
2340	2486	2487	1
2341	2486	2495	1
2342	2487	2494	1
2343	2489	2490	1
2344	2489	2496	1
2345	2489	2497	1
2346	2490	2491	1
2347	2490	2498	1
2348	2490	2499	1
2349	2491	2492	2
2350	2491	2493	1
2351	2493	2500	1
2352	2493	2501	1
2353	2502	2505	2
2354	2502	2503	1
2355	2503	2506	1
2356	2503	2504	1
2357	2503	2509	1
2358	2504	2508	1
2359	2506	2507	1
2360	2506	2510	1
2361	2506	2511	1
2362	2507	2512	1
2363	2513	2516	2
2364	2513	2514	1
2365	2514	2517	1
2366	2514	2515	1
2367	2514	2522	1
2368	2515	2521	1
2369	2517	2518	1
2370	2517	2519	1
2371	2517	2523	1
2372	2518	2520	1
2373	2518	2524	1
2374	2518	2525	1
2375	2519	2526	1
2376	2519	2527	1
2377	2519	2528	1
2378	2520	2529	1
2379	2520	2530	1
2380	2520	2531	1
2381	2532	2535	2
2382	2532	2533	1
2383	2533	2536	1
2384	2533	2534	1
2385	2533	2539	1
2386	2534	2538	1
2387	2536	2537	1
2388	2536	2540	1
2389	2536	2541	1
2390	2537	2542	1
2391	2543	2546	2
2392	2543	2544	1
2393	2544	2547	1
2394	2544	2545	1
2395	2544	2550	1
2396	2545	2549	1
2397	2547	2548	1
2398	2547	2551	1
2399	2547	2552	1
2400	2548	2553	1
2401	2554	2557	2
2402	2554	2555	1
2403	2555	2558	1
2404	2555	2556	1
2405	2555	2567	1
2406	2556	2566	1
2407	2558	2559	1
2408	2558	2568	1
2409	2558	2569	1
2410	2559	2560	1
2411	2559	2561	2
2412	2560	2562	2
2413	2560	2570	1
2414	2561	2563	1
2415	2561	2571	1
2416	2562	2564	1
2417	2562	2572	1
2418	2563	2564	2
2419	2563	2573	1
2420	2564	2565	1
2421	2565	2574	1
2422	2575	2578	2
2423	2575	2576	1
2424	2576	2579	1
2425	2576	2577	1
2426	2576	2584	1
2427	2577	2583	1
2428	2579	2580	1
2429	2579	2585	1
2430	2579	2586	1
2431	2580	2581	1
2432	2580	2582	1
2433	2580	2587	1
2434	2581	2588	1
2435	2581	2589	1
2436	2581	2590	1
2437	2582	2591	1
2438	2582	2592	1
2439	2582	2593	1
2440	2594	2597	2
2441	2594	2595	1
2442	2595	2598	1
2443	2595	2596	1
2444	2595	2603	1
2445	2596	2602	1
2446	2598	2599	1
2447	2598	2604	1
2448	2598	2605	1
2449	2599	2600	2
2450	2599	2601	1
2451	2601	2606	1
2452	2601	2607	1
2453	2608	2611	2
2454	2608	2609	1
2455	2609	2612	1
2456	2609	2610	1
2457	2609	2623	1
2458	2610	2622	1
2459	2612	2613	1
2460	2612	2624	1
2461	2612	2625	1
2462	2613	2614	2
2463	2613	2615	1
2464	2614	2621	1
2465	2614	2626	1
2466	2615	2616	2
2467	2615	2617	1
2468	2616	2618	1
2469	2616	2621	1
2470	2617	2619	2
2471	2617	2628	1
2472	2618	2620	2
2473	2618	2629	1
2474	2619	2620	1
2475	2619	2630	1
2476	2620	2631	1
2477	2621	2627	1
2478	2632	2635	2
2479	2632	2633	1
2480	2633	2636	1
2481	2633	2634	1
2482	2633	2645	1
2483	2634	2644	1
2484	2636	2637	1
2485	2636	2646	1
2486	2636	2647	1
2487	2637	2638	1
2488	2637	2639	2
2489	2638	2640	2
2490	2638	2648	1
2491	2639	2641	1
2492	2639	2649	1
2493	2640	2642	1
2494	2640	2650	1
2495	2641	2642	2
2496	2641	2651	1
2497	2642	2643	1
2498	2643	2652	1
2499	2653	2656	2
2500	2653	2654	1
2501	2654	2657	1
2502	2654	2655	1
2503	2654	2663	1
2504	2655	2662	1
2505	2657	2658	1
2506	2657	2664	1
2507	2657	2665	1
2508	2658	2659	1
2509	2658	2666	1
2510	2658	2667	1
2511	2659	2660	2
2512	2659	2661	1
2513	2661	2668	1
2514	2661	2669	1
2515	2670	2673	2
2516	2670	2671	1
2517	2671	2674	1
2518	2671	2672	1
2519	2671	2680	1
2520	2672	2679	1
2521	2674	2675	1
2522	2674	2681	1
2523	2674	2682	1
2524	2675	2676	1
2525	2675	2683	1
2526	2675	2684	1
2527	2676	2677	2
2528	2676	2678	1
2529	2678	2685	1
2530	2678	2686	1
2531	2687	2690	2
2532	2687	2688	1
2533	2688	2691	1
2534	2688	2689	1
2535	2688	2697	1
2536	2689	2696	1
2537	2691	2692	1
2538	2691	2698	1
2539	2691	2699	1
2540	2692	2693	1
2541	2692	2700	1
2542	2692	2701	1
2543	2693	2694	1
2544	2693	2702	1
2545	2693	2703	1
2546	2694	2695	1
2547	2694	2704	1
2548	2694	2705	1
2549	2695	2706	1
2550	2695	2707	1
2551	2695	2708	1
2552	2709	2712	2
2553	2709	2710	1
2554	2710	2713	1
2555	2710	2711	1
2556	2710	2716	1
2557	2713	2714	1
2558	2713	2717	1
2559	2713	2718	1
2560	2714	2715	1
2561	2714	2719	1
2562	2714	2720	1
2563	2715	2711	1
2564	2715	2721	1
2565	2715	2722	1
2566	2723	2726	2
2567	2723	2724	1
2568	2724	2725	1
2569	2724	2728	1
2570	2724	2729	1
2571	2725	2727	1
2572	2730	2733	2
2573	2730	2731	1
2574	2731	2734	1
2575	2731	2732	1
2576	2731	2740	1
2577	2732	2739	1
2578	2734	2735	1
2579	2734	2741	1
2580	2734	2742	1
2581	2735	2736	1
2582	2735	2743	1
2583	2735	2744	1
2584	2736	2737	1
2585	2736	2745	1
2586	2736	2746	1
2587	2737	2738	1
2588	2737	2747	1
2589	2737	2748	1
2590	2738	2749	1
2591	2738	2750	1
2592	2738	2751	1
2593	2752	2755	2
2594	2752	2753	1
2595	2753	2756	1
2596	2753	2754	1
2597	2753	2758	1
2598	2754	2757	1
2599	2756	2759	1
2600	2756	2760	1
2601	2756	2761	1
2602	2762	2765	2
2603	2762	2763	1
2604	2763	2766	1
2605	2763	2764	1
2606	2763	2769	1
2607	2766	2767	1
2608	2766	2770	1
2609	2766	2771	1
2610	2767	2768	1
2611	2767	2772	1
2612	2767	2773	1
2613	2768	2764	1
2614	2768	2774	1
2615	2768	2775	1
2616	2776	2779	2
2617	2776	2777	1
2618	2777	2780	1
2619	2777	2778	1
2620	2777	2786	1
2621	2778	2785	1
2622	2780	2781	1
2623	2780	2787	1
2624	2780	2788	1
2625	2781	2782	1
2626	2781	2789	1
2627	2781	2790	1
2628	2782	2783	1
2629	2782	2791	1
2630	2782	2792	1
2631	2783	2784	1
2632	2783	2793	1
2633	2783	2794	1
2634	2784	2795	1
2635	2784	2796	1
2636	2784	2797	1
2637	2798	2801	2
2638	2798	2799	1
2639	2799	2802	1
2640	2799	2800	1
2641	2799	2807	1
2642	2800	2806	1
2643	2802	2803	1
2644	2802	2808	1
2645	2802	2809	1
2646	2803	2804	1
2647	2803	2805	1
2648	2803	2810	1
2649	2804	2811	1
2650	2804	2812	1
2651	2804	2813	1
2652	2805	2814	1
2653	2805	2815	1
2654	2805	2816	1
2655	2817	2820	2
2656	2817	2818	1
2657	2818	2821	1
2658	2818	2819	1
2659	2818	2826	1
2660	2819	2825	1
2661	2821	2822	1
2662	2821	2827	1
2663	2821	2828	1
2664	2822	2823	1
2665	2822	2824	1
2666	2822	2829	1
2667	2823	2830	1
2668	2823	2831	1
2669	2823	2832	1
2670	2824	2833	1
2671	2824	2834	1
2672	2824	2835	1
2673	2836	2839	2
2674	2836	2837	1
2675	2837	2840	1
2676	2837	2838	1
2677	2837	2845	1
2678	2838	2844	1
2679	2840	2841	1
2680	2840	2842	1
2681	2840	2846	1
2682	2841	2843	1
2683	2841	2847	1
2684	2841	2848	1
2685	2842	2849	1
2686	2842	2850	1
2687	2842	2851	1
2688	2843	2852	1
2689	2843	2853	1
2690	2843	2854	1
2691	2855	2858	2
2692	2855	2856	1
2693	2856	2859	1
2694	2856	2857	1
2695	2856	2868	1
2696	2857	2867	1
2697	2859	2860	1
2698	2859	2869	1
2699	2859	2870	1
2700	2860	2861	1
2701	2860	2862	2
2702	2861	2863	2
2703	2861	2871	1
2704	2862	2864	1
2705	2862	2872	1
2706	2863	2865	1
2707	2863	2873	1
2708	2864	2865	2
2709	2864	2874	1
2710	2865	2866	1
2711	2866	2875	1
2712	2876	2879	2
2713	2876	2877	1
2714	2877	2880	1
2715	2877	2878	1
2716	2877	2882	1
2717	2878	2881	1
2718	2880	2883	1
2719	2880	2884	1
2720	2880	2885	1
2721	2886	2889	2
2722	2886	2887	1
2723	2887	2890	1
2724	2887	2888	1
2725	2887	2892	1
2726	2888	2891	1
2727	2890	2893	1
2728	2890	2894	1
2729	2890	2895	1
2730	2896	2899	2
2731	2896	2897	1
2732	2897	2900	1
2733	2897	2898	1
2734	2897	2903	1
2735	2898	2902	1
2736	2900	2901	1
2737	2900	2904	1
2738	2900	2905	1
2739	2901	2906	1
2740	2907	2910	2
2741	2907	2908	1
2742	2908	2911	1
2743	2908	2909	1
2744	2908	2914	1
2745	2909	2913	1
2746	2911	2912	1
2747	2911	2915	1
2748	2911	2916	1
2749	2912	2917	1
2750	2918	2921	2
2751	2918	2919	1
2752	2919	2922	1
2753	2919	2920	1
2754	2919	2927	1
2755	2920	2926	1
2756	2922	2923	1
2757	2922	2928	1
2758	2922	2929	1
2759	2923	2924	1
2760	2923	2925	1
2761	2923	2930	1
2762	2924	2931	1
2763	2924	2932	1
2764	2924	2933	1
2765	2925	2934	1
2766	2925	2935	1
2767	2925	2936	1
2768	2937	2940	2
2769	2937	2938	1
2770	2938	2941	1
2771	2938	2939	1
2772	2938	2947	1
2773	2939	2946	1
2774	2941	2942	1
2775	2941	2948	1
2776	2941	2949	1
2777	2942	2943	1
2778	2942	2950	1
2779	2942	2951	1
2780	2943	2944	2
2781	2943	2945	1
2782	2945	2952	1
2783	2945	2953	1
2784	2954	2957	2
2785	2954	2955	1
2786	2955	2958	1
2787	2955	2956	1
2788	2955	2961	1
2789	2956	2960	1
2790	2958	2959	1
2791	2958	2962	1
2792	2958	2963	1
2793	2959	2964	1
2794	2965	2968	2
2795	2965	2966	1
2796	2966	2967	1
2797	2966	2970	1
2798	2966	2971	1
2799	2967	2969	1
2800	2972	2975	2
2801	2972	2973	1
2802	2973	2976	1
2803	2973	2974	1
2804	2973	2980	1
2805	2974	2979	1
2806	2976	2977	1
2807	2976	2978	1
2808	2976	2981	1
2809	2977	2982	1
2810	2977	2983	1
2811	2977	2984	1
2812	2978	2985	1
2813	2978	2986	1
2814	2978	2987	1
2815	2988	2991	2
2816	2988	2989	1
2817	2989	2992	1
2818	2989	2990	1
2819	2989	2995	1
2820	2992	2993	1
2821	2992	2996	1
2822	2992	2997	1
2823	2993	2994	1
2824	2993	2998	1
2825	2993	2999	1
2826	2994	2990	1
2827	2994	3000	1
2828	2994	3001	1
2829	3002	3005	2
2830	3002	3003	1
2831	3003	3006	1
2832	3003	3004	1
2833	3003	3009	1
2834	3004	3008	1
2835	3006	3007	1
2836	3006	3010	1
2837	3006	3011	1
2838	3007	3012	1
2839	3013	3016	2
2840	3013	3014	1
2841	3014	3017	1
2842	3014	3015	1
2843	3014	3025	1
2844	3015	3024	1
2845	3017	3018	1
2846	3017	3026	1
2847	3017	3027	1
2848	3018	3019	1
2849	3018	3028	1
2850	3018	3029	1
2851	3019	3021	1
2852	3019	3030	1
2853	3019	3031	1
2854	3020	3021	1
2855	3020	3022	1
2856	3020	3023	2
2857	3021	3032	1
2858	3022	3033	1
2859	3022	3034	1
2860	3023	3035	1
2861	3023	3036	1
2862	3037	3040	2
2863	3037	3038	1
2864	3038	3041	1
2865	3038	3039	1
2866	3038	3049	1
2867	3039	3048	1
2868	3041	3042	1
2869	3041	3050	1
2870	3041	3051	1
2871	3042	3043	1
2872	3042	3044	2
2873	3043	3045	2
2874	3043	3052	1
2875	3044	3046	1
2876	3044	3053	1
2877	3045	3047	1
2878	3045	3054	1
2879	3046	3047	2
2880	3046	3055	1
2881	3047	3056	1
2882	3057	3060	2
2883	3057	3058	1
2884	3058	3061	1
2885	3058	3059	1
2886	3058	3064	1
2887	3059	3063	1
2888	3061	3062	1
2889	3061	3065	1
2890	3061	3066	1
2891	3062	3067	1
2892	3068	3071	2
2893	3068	3069	1
2894	3069	3070	1
2895	3069	3073	1
2896	3069	3074	1
2897	3070	3072	1
2898	3075	3078	2
2899	3075	3076	1
2900	3076	3079	1
2901	3076	3077	1
2902	3076	3082	1
2903	3077	3081	1
2904	3079	3080	1
2905	3079	3083	1
2906	3079	3084	1
2907	3080	3085	1
2908	3086	3089	2
2909	3086	3087	1
2910	3087	3088	1
2911	3087	3091	1
2912	3087	3092	1
2913	3088	3090	1
2914	3093	3096	2
2915	3093	3094	1
2916	3094	3097	1
2917	3094	3095	1
2918	3094	3100	1
2919	3095	3099	1
2920	3097	3098	1
2921	3097	3101	1
2922	3097	3102	1
2923	3098	3103	1
2924	3104	3107	2
2925	3104	3105	1
2926	3105	3106	1
2927	3105	3109	1
2928	3105	3110	1
2929	3106	3108	1
2930	3111	3114	2
2931	3111	3112	1
2932	3112	3115	1
2933	3112	3113	1
2934	3112	3119	1
2935	3113	3118	1
2936	3115	3116	1
2937	3115	3117	1
2938	3115	3120	1
2939	3116	3122	1
2940	3116	3123	1
2941	3116	3124	1
2942	3117	3121	1
2943	3125	3128	2
2944	3125	3126	1
2945	3126	3129	1
2946	3126	3127	1
2947	3126	3134	1
2948	3127	3133	1
2949	3129	3130	1
2950	3129	3135	1
2951	3129	3136	1
2952	3130	3131	2
2953	3130	3132	1
2954	3137	3140	2
2955	3137	3138	1
2956	3138	3141	1
2957	3138	3139	1
2958	3138	3149	1
2959	3139	3148	1
2960	3141	3142	1
2961	3141	3150	1
2962	3141	3151	1
2963	3142	3143	1
2964	3142	3144	2
2965	3143	3145	2
2966	3143	3152	1
2967	3144	3146	1
2968	3144	3153	1
2969	3145	3147	1
2970	3145	3154	1
2971	3146	3147	2
2972	3146	3155	1
2973	3147	3156	1
2974	3157	3160	2
2975	3157	3158	1
2976	3158	3161	1
2977	3158	3159	1
2978	3158	3165	1
2979	3159	3164	1
2980	3161	3162	1
2981	3161	3163	1
2982	3161	3166	1
2983	3162	3168	1
2984	3162	3169	1
2985	3162	3170	1
2986	3163	3167	1
2987	3171	3174	2
2988	3171	3172	1
2989	3172	3175	1
2990	3172	3173	1
2991	3172	3180	1
2992	3173	3179	1
2993	3175	3176	1
2994	3175	3181	1
2995	3175	3182	1
2996	3176	3177	1
2997	3176	3178	1
2998	3176	3183	1
2999	3177	3184	1
3000	3177	3185	1
3001	3177	3186	1
3002	3178	3187	1
3003	3178	3188	1
3004	3178	3189	1
3005	3190	3193	2
3006	3190	3191	1
3007	3191	3194	1
3008	3191	3192	1
3009	3191	3198	1
3010	3192	3197	1
3011	3194	3195	1
3012	3194	3196	1
3013	3194	3199	1
3014	3195	3201	1
3015	3195	3202	1
3016	3195	3203	1
3017	3196	3200	1
3018	3204	3207	2
3019	3204	3205	1
3020	3205	3208	1
3021	3205	3206	1
3022	3205	3213	1
3023	3206	3212	1
3024	3208	3209	1
3025	3208	3210	1
3026	3208	3214	1
3027	3209	3211	1
3028	3209	3215	1
3029	3209	3216	1
3030	3210	3217	1
3031	3210	3218	1
3032	3210	3219	1
3033	3211	3220	1
3034	3211	3221	1
3035	3211	3222	1
3036	3223	3226	2
3037	3223	3224	1
3038	3224	3227	1
3039	3224	3225	1
3040	3224	3230	1
3041	3225	3229	1
3042	3227	3228	1
3043	3227	3231	1
3044	3227	3232	1
3045	3228	3233	1
3046	3234	3237	2
3047	3234	3235	1
3048	3235	3238	1
3049	3235	3236	1
3050	3235	3241	1
3051	3236	3240	1
3052	3238	3239	1
3053	3238	3242	1
3054	3238	3243	1
3055	3239	3244	1
3056	3245	3248	2
3057	3245	3246	1
3058	3246	3249	1
3059	3246	3247	1
3060	3246	3254	1
3061	3247	3253	1
3062	3249	3250	1
3063	3249	3255	1
3064	3249	3256	1
3065	3250	3251	1
3066	3250	3252	1
3067	3250	3257	1
3068	3251	3258	1
3069	3251	3259	1
3070	3251	3260	1
3071	3252	3261	1
3072	3252	3262	1
3073	3252	3263	1
3074	3264	3267	2
3075	3264	3265	1
3076	3265	3268	1
3077	3265	3266	1
3078	3265	3274	1
3079	3266	3273	1
3080	3268	3269	1
3081	3268	3275	1
3082	3268	3276	1
3083	3269	3270	1
3084	3269	3277	1
3085	3269	3278	1
3086	3270	3271	2
3087	3270	3272	1
3088	3272	3279	1
3089	3272	3280	1
3090	3281	3284	2
3091	3281	3282	1
3092	3282	3285	1
3093	3282	3283	1
3094	3282	3288	1
3095	3285	3286	1
3096	3285	3289	1
3097	3285	3290	1
3098	3286	3287	1
3099	3286	3291	1
3100	3286	3292	1
3101	3287	3283	1
3102	3287	3293	1
3103	3287	3294	1
3104	3295	3298	2
3105	3295	3296	1
3106	3296	3299	1
3107	3296	3297	1
3108	3296	3305	1
3109	3297	3304	1
3110	3299	3300	1
3111	3299	3306	1
3112	3299	3307	1
3113	3300	3301	1
3114	3300	3308	1
3115	3300	3309	1
3116	3301	3302	2
3117	3301	3303	1
3118	3310	3313	2
3119	3310	3311	1
3120	3311	3314	1
3121	3311	3312	1
3122	3311	3319	1
3123	3312	3318	1
3124	3314	3315	1
3125	3314	3320	1
3126	3314	3321	1
3127	3315	3316	2
3128	3315	3317	1
3129	3322	3325	2
3130	3322	3323	1
3131	3323	3326	1
3132	3323	3324	1
3133	3323	3334	1
3134	3324	3333	1
3135	3326	3327	1
3136	3326	3335	1
3137	3326	3336	1
3138	3327	3328	1
3139	3327	3329	2
3140	3328	3330	2
3141	3328	3337	1
3142	3329	3331	1
3143	3329	3338	1
3144	3330	3332	1
3145	3330	3339	1
3146	3331	3332	2
3147	3331	3340	1
3148	3332	3341	1
3149	3342	3345	2
3150	3342	3343	1
3151	3343	3346	1
3152	3343	3344	1
3153	3343	3348	1
3154	3344	3347	1
3155	3346	3349	1
3156	3346	3350	1
3157	3346	3351	1
3158	3352	3355	2
3159	3352	3353	1
3160	3353	3356	1
3161	3353	3354	1
3162	3353	3360	1
3163	3354	3359	1
3164	3356	3357	1
3165	3356	3358	1
3166	3356	3361	1
3167	3357	3363	1
3168	3357	3364	1
3169	3357	3365	1
3170	3358	3362	1
3171	3366	3369	2
3172	3366	3367	1
3173	3367	3370	1
3174	3367	3368	1
3175	3367	3379	1
3176	3368	3378	1
3177	3370	3371	1
3178	3370	3380	1
3179	3370	3381	1
3180	3371	3372	1
3181	3371	3373	2
3182	3372	3374	2
3183	3372	3382	1
3184	3373	3375	1
3185	3373	3383	1
3186	3374	3376	1
3187	3374	3384	1
3188	3375	3376	2
3189	3375	3385	1
3190	3376	3377	1
3191	3377	3386	1
3192	3387	3390	2
3193	3387	3388	1
3194	3388	3391	1
3195	3388	3389	1
3196	3388	3400	1
3197	3389	3399	1
3198	3391	3392	1
3199	3391	3401	1
3200	3391	3402	1
3201	3392	3393	1
3202	3392	3394	2
3203	3393	3395	2
3204	3393	3403	1
3205	3394	3396	1
3206	3394	3404	1
3207	3395	3397	1
3208	3395	3405	1
3209	3396	3397	2
3210	3396	3406	1
3211	3397	3398	1
3212	3398	3407	1
3213	3408	3411	2
3214	3408	3409	1
3215	3409	3412	1
3216	3409	3410	1
3217	3409	3415	1
3218	3410	3414	1
3219	3412	3413	1
3220	3412	3416	1
3221	3412	3417	1
3222	3418	3421	2
3223	3418	3419	1
3224	3419	3422	1
3225	3419	3420	1
3226	3419	3428	1
3227	3420	3427	1
3228	3422	3423	1
3229	3422	3429	1
3230	3422	3430	1
3231	3423	3424	1
3232	3423	3431	1
3233	3423	3432	1
3234	3424	3425	2
3235	3424	3426	1
3236	3426	3433	1
3237	3426	3434	1
3238	3435	3438	2
3239	3435	3436	1
3240	3436	3439	1
3241	3436	3437	1
3242	3436	3445	1
3243	3437	3444	1
3244	3439	3440	1
3245	3439	3446	1
3246	3439	3447	1
3247	3440	3441	1
3248	3440	3448	1
3249	3440	3449	1
3250	3441	3442	2
3251	3441	3443	1
3252	3443	3450	1
3253	3443	3451	1
3254	3452	3455	2
3255	3452	3453	1
3256	3453	3456	1
3257	3453	3454	1
3258	3453	3459	1
3259	3454	3458	1
3260	3456	3457	1
3261	3456	3460	1
3262	3456	3461	1
3263	3457	3462	1
3264	3463	3466	2
3265	3463	3464	1
3266	3464	3467	1
3267	3464	3465	1
3268	3464	3472	1
3269	3465	3471	1
3270	3467	3468	1
3271	3467	3473	1
3272	3467	3474	1
3273	3468	3469	2
3274	3468	3470	1
3275	3475	3478	2
3276	3475	3476	1
3277	3476	3479	1
3278	3476	3477	1
3279	3476	3483	1
3280	3477	3482	1
3281	3479	3480	1
3282	3479	3481	1
3283	3479	3484	1
3284	3480	3486	1
3285	3480	3487	1
3286	3480	3488	1
3287	3481	3485	1
3288	3489	3492	2
3289	3489	3490	1
3290	3490	3493	1
3291	3490	3491	1
3292	3490	3496	1
3293	3493	3494	1
3294	3493	3497	1
3295	3493	3498	1
3296	3494	3495	1
3297	3494	3499	1
3298	3494	3500	1
3299	3495	3491	1
3300	3495	3501	1
3301	3495	3502	1
3302	3503	3506	2
3303	3503	3504	1
3304	3504	3507	1
3305	3504	3505	1
3306	3504	3510	1
3307	3505	3509	1
3308	3507	3508	1
3309	3507	3511	1
3310	3507	3512	1
3311	3508	3513	1
3312	3514	3517	2
3313	3514	3515	1
3314	3515	3518	1
3315	3515	3516	1
3316	3515	3522	1
3317	3516	3521	1
3318	3518	3519	1
3319	3518	3520	1
3320	3518	3523	1
3321	3519	3525	1
3322	3519	3526	1
3323	3519	3527	1
3324	3520	3524	1
3325	3528	3531	2
3326	3528	3529	1
3327	3529	3532	1
3328	3529	3530	1
3329	3529	3540	1
3330	3530	3539	1
3331	3532	3533	1
3332	3532	3541	1
3333	3532	3542	1
3334	3533	3534	1
3335	3533	3535	2
3336	3534	3536	2
3337	3534	3543	1
3338	3535	3537	1
3339	3535	3544	1
3340	3536	3538	1
3341	3536	3545	1
3342	3537	3538	2
3343	3537	3546	1
3344	3538	3547	1
3345	3548	3551	2
3346	3548	3549	1
3347	3549	3550	1
3348	3549	3553	1
3349	3549	3554	1
3350	3550	3552	1
3351	3555	3558	2
3352	3555	3556	1
3353	3556	3559	1
3354	3556	3557	1
3355	3556	3565	1
3356	3557	3564	1
3357	3559	3560	1
3358	3559	3566	1
3359	3559	3567	1
3360	3560	3561	1
3361	3560	3568	1
3362	3560	3569	1
3363	3561	3562	2
3364	3561	3563	1
3365	3563	3570	1
3366	3563	3571	1
3367	3572	3575	2
3368	3572	3573	1
3369	3573	3574	1
3370	3573	3577	1
3371	3573	3578	1
3372	3574	3576	1
3373	3579	3582	2
3374	3579	3580	1
3375	3580	3583	1
3376	3580	3581	1
3377	3580	3587	1
3378	3581	3586	1
3379	3583	3584	1
3380	3583	3585	1
3381	3583	3588	1
3382	3584	3590	1
3383	3584	3591	1
3384	3584	3592	1
3385	3585	3589	1
3386	3593	3596	2
3387	3593	3594	1
3388	3594	3597	1
3389	3594	3595	1
3390	3594	3603	1
3391	3595	3602	1
3392	3597	3598	1
3393	3597	3604	1
3394	3597	3605	1
3395	3598	3599	1
3396	3598	3606	1
3397	3598	3607	1
3398	3599	3600	1
3399	3599	3608	1
3400	3599	3609	1
3401	3600	3601	1
3402	3600	3610	1
3403	3600	3611	1
3404	3601	3612	1
3405	3601	3613	1
3406	3601	3614	1
3407	3615	3618	2
3408	3615	3616	1
3409	3616	3619	1
3410	3616	3617	1
3411	3616	3624	1
3412	3617	3623	1
3413	3619	3620	1
3414	3619	3625	1
3415	3619	3626	1
3416	3620	3621	1
3417	3620	3622	1
3418	3620	3627	1
3419	3621	3628	1
3420	3621	3629	1
3421	3621	3630	1
3422	3622	3631	1
3423	3622	3632	1
3424	3622	3633	1
3425	3634	3637	2
3426	3634	3635	1
3427	3635	3638	1
3428	3635	3636	1
3429	3635	3644	1
3430	3636	3643	1
3431	3638	3639	1
3432	3638	3645	1
3433	3638	3646	1
3434	3639	3640	1
3435	3639	3647	1
3436	3639	3648	1
3437	3640	3641	2
3438	3640	3642	1
3439	3649	3652	2
3440	3649	3650	1
3441	3650	3653	1
3442	3650	3651	1
3443	3650	3658	1
3444	3651	3657	1
3445	3653	3654	1
3446	3653	3655	1
3447	3653	3659	1
3448	3654	3656	1
3449	3654	3660	1
3450	3654	3661	1
3451	3655	3662	1
3452	3655	3663	1
3453	3655	3664	1
3454	3656	3665	1
3455	3656	3666	1
3456	3656	3667	1
3457	3668	3671	2
3458	3668	3669	1
3459	3669	3672	1
3460	3669	3670	1
3461	3669	3678	1
3462	3670	3677	1
3463	3672	3673	1
3464	3672	3679	1
3465	3672	3680	1
3466	3673	3674	1
3467	3673	3681	1
3468	3673	3682	1
3469	3674	3675	1
3470	3674	3683	1
3471	3674	3684	1
3472	3675	3676	1
3473	3675	3685	1
3474	3675	3686	1
3475	3676	3687	1
3476	3676	3688	1
3477	3676	3689	1
3478	3690	3693	2
3479	3690	3691	1
3480	3691	3694	1
3481	3691	3692	1
3482	3691	3702	1
3483	3692	3701	1
3484	3694	3695	1
3485	3694	3703	1
3486	3694	3704	1
3487	3695	3696	1
3488	3695	3705	1
3489	3695	3706	1
3490	3696	3698	1
3491	3696	3707	1
3492	3696	3708	1
3493	3697	3698	1
3494	3697	3699	1
3495	3697	3700	2
3496	3698	3709	1
3497	3699	3710	1
3498	3699	3711	1
3499	3700	3712	1
3500	3700	3713	1
3501	3714	3717	2
3502	3714	3715	1
3503	3715	3718	1
3504	3715	3716	1
3505	3715	3722	1
3506	3716	3721	1
3507	3718	3719	1
3508	3718	3720	1
3509	3718	3723	1
3510	3719	3725	1
3511	3719	3726	1
3512	3719	3727	1
3513	3720	3724	1
3514	3728	3731	2
3515	3728	3729	1
3516	3729	3732	1
3517	3729	3730	1
3518	3729	3737	1
3519	3730	3736	1
3520	3732	3733	1
3521	3732	3738	1
3522	3732	3739	1
3523	3733	3734	2
3524	3733	3735	1
3525	3740	3743	2
3526	3740	3741	1
3527	3741	3744	1
3528	3741	3742	1
3529	3741	3753	1
3530	3742	3752	1
3531	3744	3745	1
3532	3744	3754	1
3533	3744	3755	1
3534	3745	3746	1
3535	3745	3747	2
3536	3746	3748	2
3537	3746	3756	1
3538	3747	3749	1
3539	3747	3757	1
3540	3748	3750	1
3541	3748	3758	1
3542	3749	3750	2
3543	3749	3759	1
3544	3750	3751	1
3545	3751	3760	1
3546	3761	3764	2
3547	3761	3762	1
3548	3762	3765	1
3549	3762	3763	1
3550	3762	3771	1
3551	3763	3770	1
3552	3765	3766	1
3553	3765	3772	1
3554	3765	3773	1
3555	3766	3767	1
3556	3766	3774	1
3557	3766	3775	1
3558	3767	3768	1
3559	3767	3776	1
3560	3767	3777	1
3561	3768	3769	1
3562	3768	3778	1
3563	3768	3779	1
3564	3769	3780	1
3565	3769	3781	1
3566	3769	3782	1
3567	3783	3786	2
3568	3783	3784	1
3569	3784	3787	1
3570	3784	3785	1
3571	3784	3792	1
3572	3785	3791	1
3573	3787	3788	1
3574	3787	3793	1
3575	3787	3794	1
3576	3788	3789	2
3577	3788	3790	1
3578	3795	3798	2
3579	3795	3796	1
3580	3796	3799	1
3581	3796	3797	1
3582	3796	3806	1
3583	3797	3805	1
3584	3799	3800	1
3585	3799	3807	1
3586	3799	3808	1
3587	3800	3801	1
3588	3800	3803	2
3589	3801	3802	2
3590	3801	3809	1
3591	3802	3804	1
3592	3802	3811	1
3593	3803	3804	1
3594	3803	3810	1
3595	3812	3815	2
3596	3812	3813	1
3597	3813	3816	1
3598	3813	3814	1
3599	3813	3821	1
3600	3814	3820	1
3601	3816	3817	1
3602	3816	3822	1
3603	3816	3823	1
3604	3817	3818	2
3605	3817	3819	1
3606	3824	3827	2
3607	3824	3825	1
3608	3825	3826	1
3609	3825	3829	1
3610	3825	3830	1
3611	3826	3828	1
3612	3831	3834	2
3613	3831	3832	1
3614	3832	3835	1
3615	3832	3833	1
3616	3832	3840	1
3617	3833	3839	1
3618	3835	3836	1
3619	3835	3841	1
3620	3835	3842	1
3621	3836	3837	2
3622	3836	3838	1
3623	3843	3846	2
3624	3843	3844	1
3625	3844	3847	1
3626	3844	3845	1
3627	3844	3856	1
3628	3845	3855	1
3629	3847	3848	1
3630	3847	3857	1
3631	3847	3858	1
3632	3848	3849	1
3633	3848	3850	2
3634	3849	3851	2
3635	3849	3859	1
3636	3850	3852	1
3637	3850	3860	1
3638	3851	3853	1
3639	3851	3861	1
3640	3852	3853	2
3641	3852	3862	1
3642	3853	3854	1
3643	3854	3863	1
3644	3864	3867	2
3645	3864	3865	1
3646	3865	3868	1
3647	3865	3866	1
3648	3865	3874	1
3649	3866	3873	1
3650	3868	3869	1
3651	3868	3875	1
3652	3868	3876	1
3653	3869	3870	1
3654	3869	3877	1
3655	3869	3878	1
3656	3870	3871	1
3657	3870	3879	1
3658	3870	3880	1
3659	3871	3872	1
3660	3871	3881	1
3661	3871	3882	1
3662	3872	3883	1
3663	3872	3884	1
3664	3872	3885	1
3665	3886	3889	2
3666	3886	3887	1
3667	3887	3890	1
3668	3887	3888	1
3669	3887	3895	1
3670	3888	3894	1
3671	3890	3891	1
3672	3890	3896	1
3673	3890	3897	1
3674	3891	3892	2
3675	3891	3893	1
3676	3898	3901	2
3677	3898	3899	1
3678	3899	3902	1
3679	3899	3900	1
3680	3899	3909	1
3681	3900	3908	1
3682	3902	3903	1
3683	3902	3910	1
3684	3902	3911	1
3685	3903	3904	1
3686	3903	3906	2
3687	3904	3905	2
3688	3904	3912	1
3689	3905	3907	1
3690	3905	3914	1
3691	3906	3907	1
3692	3906	3913	1
3693	3915	3918	2
3694	3915	3916	1
3695	3916	3919	1
3696	3916	3917	1
3697	3916	3924	1
3698	3917	3923	1
3699	3919	3920	1
3700	3919	3925	1
3701	3919	3926	1
3702	3920	3921	2
3703	3920	3922	1
3704	3927	3930	2
3705	3927	3928	1
3706	3928	3931	1
3707	3928	3929	1
3708	3928	3936	1
3709	3929	3935	1
3710	3931	3932	1
3711	3931	3933	1
3712	3931	3937	1
3713	3932	3934	1
3714	3932	3938	1
3715	3932	3939	1
3716	3933	3940	1
3717	3933	3941	1
3718	3933	3942	1
3719	3934	3943	1
3720	3934	3944	1
3721	3934	3945	1
3722	3946	3949	2
3723	3946	3947	1
3724	3947	3950	1
3725	3947	3948	1
3726	3947	3955	1
3727	3948	3954	1
3728	3950	3951	1
3729	3950	3956	1
3730	3950	3957	1
3731	3951	3952	2
3732	3951	3953	1
3733	3958	3961	2
3734	3958	3959	1
3735	3959	3962	1
3736	3959	3960	1
3737	3959	3971	1
3738	3960	3970	1
3739	3962	3963	1
3740	3962	3972	1
3741	3962	3973	1
3742	3963	3964	1
3743	3963	3965	2
3744	3964	3966	2
3745	3964	3974	1
3746	3965	3967	1
3747	3965	3975	1
3748	3966	3968	1
3749	3966	3976	1
3750	3967	3968	2
3751	3967	3977	1
3752	3968	3969	1
3753	3969	3978	1
3754	3979	3982	2
3755	3979	3980	1
3756	3980	3983	1
3757	3980	3981	1
3758	3980	3989	1
3759	3981	3988	1
3760	3983	3984	1
3761	3983	3990	1
3762	3983	3991	1
3763	3984	3985	1
3764	3984	3992	1
3765	3984	3993	1
3766	3985	3986	1
3767	3985	3994	1
3768	3985	3995	1
3769	3986	3987	1
3770	3986	3996	1
3771	3986	3997	1
3772	3987	3998	1
3773	3987	3999	1
3774	3987	4000	1
3775	4001	4004	2
3776	4001	4002	1
3777	4002	4005	1
3778	4002	4003	1
3779	4002	4010	1
3780	4003	4009	1
3781	4005	4006	1
3782	4005	4011	1
3783	4005	4012	1
3784	4006	4007	2
3785	4006	4008	1
3786	4013	4016	2
3787	4013	4014	1
3788	4014	4017	1
3789	4014	4015	1
3790	4014	4022	1
3791	4015	4021	1
3792	4017	4018	1
3793	4017	4023	1
3794	4017	4024	1
3795	4018	4019	2
3796	4018	4020	1
3797	4025	4028	2
3798	4025	4026	1
3799	4026	4029	1
3800	4026	4027	1
3801	4026	4034	1
3802	4027	4033	1
3803	4029	4030	1
3804	4029	4035	1
3805	4029	4036	1
3806	4030	4031	2
3807	4030	4032	1
3808	4037	4040	2
3809	4037	4038	1
3810	4038	4041	1
3811	4038	4039	1
3812	4038	4046	1
3813	4039	4045	1
3814	4041	4042	1
3815	4041	4047	1
3816	4041	4048	1
3817	4042	4043	2
3818	4042	4044	1
3819	4049	4052	2
3820	4049	4050	1
3821	4050	4053	1
3822	4050	4051	1
3823	4050	4059	1
3824	4051	4058	1
3825	4053	4054	1
3826	4053	4060	1
3827	4053	4061	1
3828	4054	4055	1
3829	4054	4062	1
3830	4054	4063	1
3831	4055	4056	1
3832	4055	4064	1
3833	4055	4065	1
3834	4056	4057	1
3835	4056	4066	1
3836	4056	4067	1
3837	4057	4068	1
3838	4057	4069	1
3839	4057	4070	1
3840	4071	4074	2
3841	4071	4072	1
3842	4072	4075	1
3843	4072	4073	1
3844	4072	4077	1
3845	4073	4076	1
3846	4075	4078	1
3847	4075	4079	1
3848	4075	4080	1
3849	4081	4084	2
3850	4081	4082	1
3851	4082	4085	1
3852	4082	4083	1
3853	4082	4087	1
3854	4083	4086	1
3855	4085	4088	1
3856	4085	4089	1
3857	4085	4090	1
3858	4091	4094	2
3859	4091	4092	1
3860	4092	4095	1
3861	4092	4093	1
3862	4092	4097	1
3863	4093	4096	1
3864	4095	4098	1
3865	4095	4099	1
3866	4095	4100	1
3867	4101	4104	2
3868	4101	4102	1
3869	4102	4105	1
3870	4102	4103	1
3871	4102	4110	1
3872	4103	4109	1
3873	4105	4106	1
3874	4105	4111	1
3875	4105	4112	1
3876	4106	4107	1
3877	4106	4108	1
3878	4106	4113	1
3879	4107	4114	1
3880	4107	4115	1
3881	4107	4116	1
3882	4108	4117	1
3883	4108	4118	1
3884	4108	4119	1
3885	4120	4123	2
3886	4120	4121	1
3887	4121	4124	1
3888	4121	4122	1
3889	4121	4127	1
3890	4124	4125	1
3891	4124	4128	1
3892	4124	4129	1
3893	4125	4126	1
3894	4125	4130	1
3895	4125	4131	1
3896	4126	4122	1
3897	4126	4132	1
3898	4126	4133	1
3899	4134	4137	2
3900	4134	4135	1
3901	4135	4138	1
3902	4135	4136	1
3903	4135	4144	1
3904	4136	4143	1
3905	4138	4139	1
3906	4138	4145	1
3907	4138	4146	1
3908	4139	4140	1
3909	4139	4147	1
3910	4139	4148	1
3911	4140	4141	2
3912	4140	4142	1
3913	4149	4152	2
3914	4149	4150	1
3915	4150	4153	1
3916	4150	4151	1
3917	4150	4157	1
3918	4151	4156	1
3919	4153	4154	1
3920	4153	4155	1
3921	4153	4158	1
3922	4154	4160	1
3923	4154	4161	1
3924	4154	4162	1
3925	4155	4159	1
3926	4163	4166	2
3927	4163	4164	1
3928	4164	4165	1
3929	4164	4168	1
3930	4164	4169	1
3931	4165	4167	1
3932	4170	4173	2
3933	4170	4171	1
3934	4171	4172	1
3935	4171	4175	1
3936	4171	4176	1
3937	4172	4174	1
3938	4177	4180	2
3939	4177	4178	1
3940	4178	4181	1
3941	4178	4179	1
3942	4178	4188	1
3943	4179	4187	1
3944	4181	4182	1
3945	4181	4189	1
3946	4181	4190	1
3947	4182	4183	1
3948	4182	4185	2
3949	4183	4184	2
3950	4183	4191	1
3951	4184	4186	1
3952	4184	4193	1
3953	4185	4186	1
3954	4185	4192	1
3955	4194	4197	2
3956	4194	4195	1
3957	4195	4198	1
3958	4195	4196	1
3959	4195	4205	1
3960	4196	4204	1
3961	4198	4199	1
3962	4198	4206	1
3963	4198	4207	1
3964	4199	4200	1
3965	4199	4202	2
3966	4200	4201	2
3967	4200	4208	1
3968	4201	4203	1
3969	4201	4210	1
3970	4202	4203	1
3971	4202	4209	1
3972	4211	4214	2
3973	4211	4212	1
3974	4212	4215	1
3975	4212	4213	1
3976	4212	4222	1
3977	4213	4221	1
3978	4215	4216	1
3979	4215	4223	1
3980	4215	4224	1
3981	4216	4217	1
3982	4216	4219	2
3983	4217	4218	2
3984	4217	4225	1
3985	4218	4220	1
3986	4218	4227	1
3987	4219	4220	1
3988	4219	4226	1
3989	4228	4231	2
3990	4228	4229	1
3991	4229	4232	1
3992	4229	4230	1
3993	4229	4239	1
3994	4230	4238	1
3995	4232	4233	1
3996	4232	4240	1
3997	4232	4241	1
3998	4233	4234	1
3999	4233	4236	2
4000	4234	4235	2
4001	4234	4242	1
4002	4235	4237	1
4003	4235	4244	1
4004	4236	4237	1
4005	4236	4243	1
4006	4245	4248	2
4007	4245	4246	1
4008	4246	4249	1
4009	4246	4247	1
4010	4246	4256	1
4011	4247	4255	1
4012	4249	4250	1
4013	4249	4257	1
4014	4249	4258	1
4015	4250	4251	1
4016	4250	4253	2
4017	4251	4252	2
4018	4251	4259	1
4019	4252	4254	1
4020	4252	4261	1
4021	4253	4254	1
4022	4253	4260	1
4023	4262	4265	2
4024	4262	4263	1
4025	4263	4266	1
4026	4263	4264	1
4027	4263	4273	1
4028	4264	4272	1
4029	4266	4267	1
4030	4266	4274	1
4031	4266	4275	1
4032	4267	4268	1
4033	4267	4270	2
4034	4268	4269	2
4035	4268	4276	1
4036	4269	4271	1
4037	4269	4278	1
4038	4270	4271	1
4039	4270	4277	1
4040	1	20	1
4041	18	34	1
4042	32	53	1
4043	51	72	1
4044	70	91	1
4045	89	110	1
4046	108	129	1
4047	127	143	1
4048	141	162	1
4049	160	181	1
4050	179	205	1
4051	203	215	1
4052	213	222	1
4053	220	232	1
4054	230	251	1
4055	249	261	1
4056	259	276	1
4057	274	292	1
4058	290	309	1
4059	307	328	1
4060	326	347	1
4061	345	362	1
4062	360	373	1
4063	371	380	1
4064	378	387	1
4065	385	394	1
4066	392	413	1
4067	411	429	1
4068	427	446	1
4069	444	460	1
4070	458	467	1
4071	465	474	1
4072	472	485	1
4073	483	504	1
4074	502	528	1
4075	526	547	1
4076	545	558	1
4077	556	568	1
4078	566	578	1
4079	576	588	1
4080	586	599	1
4081	597	606	1
4082	604	626	1
4083	624	640	1
4084	638	660	1
4085	658	671	1
4086	669	692	1
4087	690	713	1
4088	711	720	1
4089	718	737	1
4090	735	744	1
4091	742	768	1
4092	766	784	1
4093	782	808	1
4094	806	825	1
4095	823	835	1
4096	833	849	1
4097	847	856	1
4098	854	878	1
4099	876	885	1
4100	883	904	1
4101	902	919	1
4102	917	943	1
4103	941	959	1
4104	957	970	1
4105	968	977	1
4106	975	996	1
4107	994	1007	1
4108	1005	1028	1
4109	1026	1039	1
4110	1037	1046	1
4111	1044	1057	1
4112	1055	1064	1
4113	1062	1078	1
4114	1076	1099	1
4115	1097	1120	1
4116	1118	1130	1
4117	1128	1142	1
4118	1140	1153	1
4119	1151	1169	1
4120	1167	1191	1
4121	1189	1198	1
4122	1196	1222	1
4123	1220	1242	1
4124	1240	1256	1
4125	1254	1275	1
4126	1273	1286	1
4127	1284	1310	1
4128	1308	1322	1
4129	1320	1336	1
4130	1334	1347	1
4131	1345	1369	1
4132	1367	1383	1
4133	1381	1397	1
4134	1395	1416	1
4135	1414	1437	1
4136	1435	1456	1
4137	1454	1473	1
4138	1471	1490	1
4139	1488	1504	1
4140	1502	1515	1
4141	1513	1534	1
4142	1532	1558	1
4143	1556	1568	1
4144	1566	1583	1
4145	1581	1595	1
4146	1593	1609	1
4147	1607	1619	1
4148	1617	1635	1
4149	1633	1656	1
4150	1654	1677	1
4151	1675	1687	1
4152	1685	1697	1
4153	1695	1721	1
4154	1719	1733	1
4155	1731	1754	1
4156	1752	1770	1
4157	1768	1777	1
4158	1775	1791	1
4159	1789	1810	1
4160	1808	1822	1
4161	1820	1843	1
4162	1841	1867	1
4163	1865	1874	1
4164	1872	1891	1
4165	1889	1898	1
4166	1896	1912	1
4167	1910	1931	1
4168	1929	1947	1
4169	1945	1961	1
4170	1959	1977	1
4171	1975	1988	1
4172	1986	1999	1
4173	1997	2006	1
4174	2004	2013	1
4175	2011	2020	1
4176	2018	2027	1
4177	2025	2038	1
4178	2036	2045	1
4179	2043	2052	1
4180	2050	2059	1
4181	2057	2066	1
4182	2064	2077	1
4183	2075	2084	1
4184	2082	2091	1
4185	2089	2098	1
4186	2096	2105	1
4187	2103	2116	1
4188	2114	2128	1
4189	2126	2147	1
4190	2145	2164	1
4191	2162	2181	1
4192	2179	2195	1
4193	2193	2212	1
4194	2210	2223	1
4195	2221	2237	1
4196	2235	2248	1
4197	2246	2259	1
4198	2257	2278	1
4199	2276	2289	1
4200	2287	2299	1
4201	2297	2310	1
4202	2308	2326	1
4203	2324	2333	1
4204	2331	2345	1
4205	2343	2369	1
4206	2367	2385	1
4207	2383	2399	1
4208	2397	2418	1
4209	2416	2432	1
4210	2430	2442	1
4211	2440	2466	1
4212	2464	2476	1
4213	2474	2487	1
4214	2485	2504	1
4215	2502	2515	1
4216	2513	2534	1
4217	2532	2545	1
4218	2543	2556	1
4219	2554	2577	1
4220	2575	2596	1
4221	2594	2610	1
4222	2608	2634	1
4223	2632	2655	1
4224	2653	2672	1
4225	2670	2689	1
4226	2687	2711	1
4227	2709	2725	1
4228	2723	2732	1
4229	2730	2754	1
4230	2752	2764	1
4231	2762	2778	1
4232	2776	2800	1
4233	2798	2819	1
4234	2817	2838	1
4235	2836	2857	1
4236	2855	2878	1
4237	2876	2888	1
4238	2886	2898	1
4239	2896	2909	1
4240	2907	2920	1
4241	2918	2939	1
4242	2937	2956	1
4243	2954	2967	1
4244	2965	2974	1
4245	2972	2990	1
4246	2988	3004	1
4247	3002	3015	1
4248	3013	3039	1
4249	3037	3059	1
4250	3057	3070	1
4251	3068	3077	1
4252	3075	3088	1
4253	3086	3095	1
4254	3093	3106	1
4255	3104	3113	1
4256	3111	3127	1
4257	3125	3139	1
4258	3137	3159	1
4259	3157	3173	1
4260	3171	3192	1
4261	3190	3206	1
4262	3204	3225	1
4263	3223	3236	1
4264	3234	3247	1
4265	3245	3266	1
4266	3264	3283	1
4267	3281	3297	1
4268	3295	3312	1
4269	3310	3324	1
4270	3322	3344	1
4271	3342	3354	1
4272	3352	3368	1
4273	3366	3389	1
4274	3387	3410	1
4275	3408	3420	1
4276	3418	3437	1
4277	3435	3454	1
4278	3452	3465	1
4279	3463	3477	1
4280	3475	3491	1
4281	3489	3505	1
4282	3503	3516	1
4283	3514	3530	1
4284	3528	3550	1
4285	3548	3557	1
4286	3555	3574	1
4287	3572	3581	1
4288	3579	3595	1
4289	3593	3617	1
4290	3615	3636	1
4291	3634	3651	1
4292	3649	3670	1
4293	3668	3692	1
4294	3690	3716	1
4295	3714	3730	1
4296	3728	3742	1
4297	3740	3763	1
4298	3761	3785	1
4299	3783	3797	1
4300	3795	3814	1
4301	3812	3826	1
4302	3824	3833	1
4303	3831	3845	1
4304	3843	3866	1
4305	3864	3888	1
4306	3886	3900	1
4307	3898	3917	1
4308	3915	3929	1
4309	3927	3948	1
4310	3946	3960	1
4311	3958	3981	1
4312	3979	4003	1
4313	4001	4015	1
4314	4013	4027	1
4315	4025	4039	1
4316	4037	4051	1
4317	4049	4073	1
4318	4071	4083	1
4319	4081	4093	1
4320	4091	4103	1
4321	4101	4122	1
4322	4120	4136	1
4323	4134	4151	1
4324	4149	4165	1
4325	4163	4172	1
4326	4170	4179	1
4327	4177	4196	1
4328	4194	4213	1
4329	4211	4230	1
4330	4228	4247	1
4331	4245	4264	1
@<TRIPOS>SUBSTRUCTURE
1	noname	1
