@<TRIPOS>MOLECULE

2354 2376 2
SMALL
USER_CHARGES
@<TRIPOS>ATOM
1	C1    27.0150     3.4410     3.8950	C.2	1	fragment1	0.0000
2	C2    27.2340     3.4310     2.3790	C.3	1	fragment1	0.0000
3	N1    26.1520     2.6380     1.7260	N.3	1	fragment1	0.0000
4	O1    27.8860     3.0600     4.6520	O.2	1	fragment1	0.0000
5	C3    27.2330     4.8700     1.8620	C.3	1	fragment1	0.0000
6	H1    28.1860     2.9760     2.1620	H	1	fragment1	0.0000
7	H2    27.1150     4.8720     0.7890	H	1	fragment1	0.0000
8	H3    26.4170     5.4180     2.3100	H	1	fragment1	0.0000
9	H4    28.1660     5.3500     2.1180	H	1	fragment1	0.0000
10	C4    24.0510     3.9260     6.0070	C.2	1	fragment1	0.0000
11	C5    25.5650     3.9160     5.7680	C.3	1	fragment1	0.0000
12	N2    25.8550     3.8750     4.3050	N.3	1	fragment1	0.0000
13	O2    23.5890     3.6240     7.0900	O.2	1	fragment1	0.0000
14	C6    26.1840     5.1790     6.3650	C.3	1	fragment1	0.0000
15	C7    26.8430     4.8320     7.7020	C.3	1	fragment1	0.0000
16	C8    27.1230     6.1230     8.4760	C.3	1	fragment1	0.0000
17	C9    28.0120     7.0370     7.6300	C.3	1	fragment1	0.0000
18	N3    29.0790     6.2480     6.9530	N.3	1	fragment1	0.0000
19	H5    25.1820     4.1720     3.6580	H	1	fragment1	0.0000
20	H6    25.9950     3.0510     6.2410	H	1	fragment1	0.0000
21	H7    26.9270     5.5740     5.6870	H	1	fragment1	0.0000
22	H8    25.4160     5.9220     6.5200	H	1	fragment1	0.0000
23	H9    26.1820     4.2000     8.2780	H	1	fragment1	0.0000
24	H10    27.7690     4.3060     7.5250	H	1	fragment1	0.0000
25	H11    26.1910     6.6240     8.6950	H	1	fragment1	0.0000
26	H12    27.6240     5.8870     9.4040	H	1	fragment1	0.0000
27	H13    27.4120     7.5330     6.8810	H	1	fragment1	0.0000
28	H14    28.4710     7.7810     8.2630	H	1	fragment1	0.0000
29	H15    29.6120     5.7060     7.6630	H	1	fragment1	0.0000
30	H16    28.6470     5.5930     6.2700	H	1	fragment1	0.0000
31	H17    29.7240     6.8930     6.4540	H	1	fragment1	0.0000
32	C10    21.2020     3.0300     4.5600	C.2	1	fragment1	0.0000
33	C11    21.8250     4.3100     5.1320	C.3	1	fragment1	0.0000
34	N4    23.3110     4.2720     4.9860	N.3	1	fragment1	0.0000
35	O3    21.8510     2.2780     3.8610	O.2	1	fragment1	0.0000
36	C12    21.2810     5.5210     4.3740	C.3	1	fragment1	0.0000
37	C13    21.9100     6.7940     4.9450	C.3	1	fragment1	0.0000
38	C14    22.8710     7.3900     3.9140	C.2	1	fragment1	0.0000
39	O4    22.3910     8.1840     3.1210	O.2	1	fragment1	0.0000
40	O5    24.0320     7.0190     3.9770	O.3	1	fragment1	0.0000
41	H18    23.7300     4.5060     4.1310	H	1	fragment1	0.0000
42	H19    21.5680     4.3980     6.1730	H	1	fragment1	0.0000
43	H20    21.5270     5.4330     3.3260	H	1	fragment1	0.0000
44	H21    20.2080     5.5660     4.4840	H	1	fragment1	0.0000
45	H22    21.1380     7.5150     5.1710	H	1	fragment1	0.0000
46	H23    22.4550     6.5610     5.8480	H	1	fragment1	0.0000
47	C15    18.6390     1.8750     2.9850	C.2	1	fragment1	0.0000
48	C16    19.2670     1.5880     4.3550	C.3	1	fragment1	0.0000
49	N5    19.9510     2.8110     4.8720	N.3	1	fragment1	0.0000
50	O6    18.7480     2.9710     2.4720	O.2	1	fragment1	0.0000
51	C17    18.1770     1.1710     5.3420	C.3	1	fragment1	0.0000
52	C18    18.7470     1.2110     6.7630	C.3	1	fragment1	0.0000
53	C19    17.6920     0.6950     7.7440	C.3	1	fragment1	0.0000
54	C20    19.9830     0.3120     6.8350	C.3	1	fragment1	0.0000
55	H24    19.4660     3.4450     5.4410	H	1	fragment1	0.0000
56	H25    19.9840     0.7910     4.2590	H	1	fragment1	0.0000
57	H26    17.3410     1.8500     5.2670	H	1	fragment1	0.0000
58	H27    17.8430     0.1700     5.1120	H	1	fragment1	0.0000
59	H28    19.0170     2.2240     7.0180	H	1	fragment1	0.0000
60	H29    16.7680     1.2350     7.6030	H	1	fragment1	0.0000
61	H30    17.5180    -0.3570     7.5730	H	1	fragment1	0.0000
62	H31    18.0360     0.8380     8.7580	H	1	fragment1	0.0000
63	H32    19.8470    -0.5470     6.1950	H	1	fragment1	0.0000
64	H33    20.8530     0.8630     6.5110	H	1	fragment1	0.0000
65	H34    20.1310    -0.0220     7.8520	H	1	fragment1	0.0000
66	C21    15.9040     0.5630     1.1120	C.2	1	fragment1	0.0000
67	C22    17.3510     1.0690     1.0850	C.3	1	fragment1	0.0000
68	N6    17.9960     0.8770     2.4240	N.3	1	fragment1	0.0000
69	O7    15.6080    -0.5010     0.6160	O.2	1	fragment1	0.0000
70	C23    18.1440     0.2910     0.0350	C.3	1	fragment1	0.0000
71	C24    19.5430     0.9020    -0.0900	C.3	1	fragment1	0.0000
72	C25    20.4390    -0.0510    -0.8820	C.3	1	fragment1	0.0000
73	C26    21.1840     0.4250    -3.1310	C.2	1	fragment1	0.0000
74	N7    21.2340     0.7390    -1.8650	N.3	1	fragment1	0.0000
75	N8    20.2100     0.8980    -3.8600	N.3	1	fragment1	0.0000
76	N9    22.1100    -0.3490    -3.6260	N.2	1	fragment1	0.0000
77	H35    17.9400     0.0110     2.8770	H	1	fragment1	0.0000
78	H36    17.3560     2.1080     0.8320	H	1	fragment1	0.0000
79	H37    18.2250    -0.7440     0.3330	H	1	fragment1	0.0000
80	H38    17.6380     0.3470    -0.9180	H	1	fragment1	0.0000
81	H39    19.4800     1.8510    -0.6010	H	1	fragment1	0.0000
82	H40    19.9600     1.0560     0.8940	H	1	fragment1	0.0000
83	H41    21.1090    -0.5670    -0.2110	H	1	fragment1	0.0000
84	H42    19.8320    -0.7720    -1.4090	H	1	fragment1	0.0000
85	H43    21.7900     1.4880    -1.5630	H	1	fragment1	0.0000
86	H44    19.5180     1.4900    -3.4480	H	1	fragment1	0.0000
87	H45    20.1570     0.6670    -4.8320	H	1	fragment1	0.0000
88	H46    22.8420    -0.6920    -3.0370	H	1	fragment1	0.0000
89	H47    22.0880    -0.6000    -4.5930	H	1	fragment1	0.0000
90	C27    13.0480     0.6330     0.3390	C.2	1	fragment1	0.0000
91	C28    13.6020     0.9230     1.7400	C.3	1	fragment1	0.0000
92	N10    15.0280     1.3560     1.6600	N.3	1	fragment1	0.0000
93	O8    13.4390     1.2610    -0.6250	O.2	1	fragment1	0.0000
94	C29    12.7830     2.0330     2.3960	C.3	1	fragment1	0.0000
95	S1    12.9120     2.2040     4.1930	S.3	1	fragment1	0.0000
96	H48    15.3020     2.2280     2.0150	H	1	fragment1	0.0000
97	H49    13.5360     0.0400     2.3370	H	1	fragment1	0.0000
98	H50    13.0790     2.9740     1.9560	H	1	fragment1	0.0000
99	H51    11.7430     1.8720     2.1560	H	1	fragment1	0.0000
100	C30    10.8000     0.5480    -1.6620	C.2	1	fragment1	0.0000
101	C31    11.5610    -0.6510    -1.0860	C.3	1	fragment1	0.0000
102	N11    12.1430    -0.3170     0.2550	N.3	1	fragment1	0.0000
103	O9    10.6980     0.6920    -2.8650	O.2	1	fragment1	0.0000
104	C32    10.5960    -1.8320    -0.9490	C.3	1	fragment1	0.0000
105	C33    11.3870    -3.1400    -0.9340	C.3	1	fragment1	0.0000
106	C34    10.4130    -4.3150    -0.8380	C.2	1	fragment1	0.0000
107	O10    10.3180    -4.9770     0.1770	O.2	1	fragment1	0.0000
108	N12     9.6690    -4.6060    -1.8700	N.3	1	fragment1	0.0000
109	H52    11.8720    -0.8230     1.0600	H	1	fragment1	0.0000
110	H53    12.3550    -0.9210    -1.7600	H	1	fragment1	0.0000
111	H54    10.0370    -1.7370    -0.0290	H	1	fragment1	0.0000
112	H55     9.9080    -1.8350    -1.7800	H	1	fragment1	0.0000
113	H56    11.9640    -3.2290    -1.8430	H	1	fragment1	0.0000
114	H57    12.0520    -3.1580    -0.0870	H	1	fragment1	0.0000
115	H58     9.7400    -4.0750    -2.6910	H	1	fragment1	0.0000
116	H59     9.0400    -5.3570    -1.8260	H	1	fragment1	0.0000
117	C35     9.9560     3.8290    -0.5130	C.2	1	fragment1	0.0000
118	C36     9.5280     2.5770    -1.2840	C.3	1	fragment1	0.0000
119	N13    10.2840     1.3800    -0.7960	N.3	1	fragment1	0.0000
120	O11     9.8530     3.8840     0.6960	O.2	1	fragment1	0.0000
121	C37     8.0310     2.3410    -1.0790	C.3	1	fragment1	0.0000
122	S2     7.2150     1.1520    -2.1770	S.3	1	fragment1	0.0000
123	H60    10.3910     1.2220     0.1660	H	1	fragment1	0.0000
124	H61     9.7230     2.7240    -2.3310	H	1	fragment1	0.0000
125	H62     7.8800     2.0040    -0.0640	H	1	fragment1	0.0000
126	H63     7.5250     3.2880    -1.1880	H	1	fragment1	0.0000
127	C38     9.7380     7.1040    -0.6190	C.2	1	fragment1	0.0000
128	C39    10.8670     6.0700    -0.5640	C.3	1	fragment1	0.0000
129	N14    10.4320     4.8090    -1.2340	N.3	1	fragment1	0.0000
130	O12     9.2440     7.5450     0.4000	O.2	1	fragment1	0.0000
131	C40    12.1000     6.6210    -1.2810	C.3	1	fragment1	0.0000
132	C41    13.1570     5.5170    -1.3840	C.3	1	fragment1	0.0000
133	C42    12.6700     7.7930    -0.4820	C.3	1	fragment1	0.0000
134	C43    14.3940     6.0730    -2.0920	C.3	1	fragment1	0.0000
135	H64    10.5030     4.7170    -2.2070	H	1	fragment1	0.0000
136	H65    11.1130     5.8630     0.4630	H	1	fragment1	0.0000
137	H66    11.8280     6.9580    -2.2680	H	1	fragment1	0.0000
138	H67    13.4260     5.1790    -0.3940	H	1	fragment1	0.0000
139	H68    12.7600     4.6850    -1.9470	H	1	fragment1	0.0000
140	H69    11.9850     8.0630     0.3080	H	1	fragment1	0.0000
141	H70    13.6190     7.5110    -0.0480	H	1	fragment1	0.0000
142	H71    12.8160     8.6420    -1.1330	H	1	fragment1	0.0000
143	H72    14.1690     7.0430    -2.5120	H	1	fragment1	0.0000
144	H73    15.2060     6.1710    -1.3860	H	1	fragment1	0.0000
145	H74    14.6920     5.4040    -2.8860	H	1	fragment1	0.0000
146	C44     6.8970     7.7590    -1.8950	C.2	1	fragment1	0.0000
147	C45     8.2540     8.4670    -1.9580	C.3	1	fragment1	0.0000
148	N15     9.3540     7.4690    -1.8130	N.3	1	fragment1	0.0000
149	O13     6.6890     6.7580    -2.5530	O.2	1	fragment1	0.0000
150	C46     8.3960     9.1780    -3.3020	C.3	1	fragment1	0.0000
151	C47     9.6240    10.0910    -3.2590	C.3	1	fragment1	0.0000
152	C48     9.2070    11.4710    -2.7450	C.3	1	fragment1	0.0000
153	C49     8.7400    12.3250    -3.9250	C.3	1	fragment1	0.0000
154	N16     9.9080    12.9330    -4.6230	N.3	1	fragment1	0.0000
155	H75     9.7850     7.0900    -2.6080	H	1	fragment1	0.0000
156	H76     8.3180     9.1890    -1.1620	H	1	fragment1	0.0000
157	H77     8.5150     8.4480    -4.0880	H	1	fragment1	0.0000
158	H78     7.5120     9.7670    -3.4970	H	1	fragment1	0.0000
159	H79    10.3670     9.6670    -2.6000	H	1	fragment1	0.0000
160	H80    10.0410    10.1840    -4.2510	H	1	fragment1	0.0000
161	H81     8.4030    11.3660    -2.0320	H	1	fragment1	0.0000
162	H82    10.0480    11.9470    -2.2630	H	1	fragment1	0.0000
163	H83     8.1930    11.7100    -4.6240	H	1	fragment1	0.0000
164	H84     8.0930    13.1130    -3.5680	H	1	fragment1	0.0000
165	H85    10.6300    12.2030    -4.7900	H	1	fragment1	0.0000
166	H86     9.5990    13.3310    -5.5330	H	1	fragment1	0.0000
167	H87    10.3100    13.6890    -4.0320	H	1	fragment1	0.0000
168	C50     3.6140     8.4370    -1.7920	C.2	1	fragment1	0.0000
169	C51     4.6560     7.6620    -0.9790	C.3	1	fragment1	0.0000
170	N17     6.0040     8.2960    -1.1060	N.3	1	fragment1	0.0000
171	O14     3.9430     9.3540    -2.5190	O.2	1	fragment1	0.0000
172	C52     4.2460     7.6540     0.4940	C.3	1	fragment1	0.0000
173	C53     5.1750     6.7760     1.3290	C.3	1	fragment1	0.0000
174	O15     4.4800     8.9860     0.9440	O.3	1	fragment1	0.0000
175	H88     6.2160     9.1090    -0.6020	H	1	fragment1	0.0000
176	H89     4.7010     6.6480    -1.3350	H	1	fragment1	0.0000
177	H90     3.2180     7.3720     0.6250	H	1	fragment1	0.0000
178	H91     3.6310     9.3830     1.1510	H	1	fragment1	0.0000
179	H92     5.9900     6.4210     0.7160	H	1	fragment1	0.0000
180	H93     5.5740     7.3480     2.1540	H	1	fragment1	0.0000
181	H94     4.6270     5.9300     1.7160	H	1	fragment1	0.0000
182	C54     0.7320     9.9100    -1.5810	C.2	1	fragment1	0.0000
183	C55     1.2890     8.7390    -2.4020	C.3	1	fragment1	0.0000
184	N18     2.3760     8.0470    -1.6470	N.3	1	fragment1	0.0000
185	O16     0.7100     9.8630    -0.3670	O.2	1	fragment1	0.0000
186	C56     0.1710     7.7320    -2.6830	C.3	1	fragment1	0.0000
187	C57    -0.5050     8.0690    -4.0160	C.2	1	fragment1	0.0000
188	C58     0.2080     8.0210    -5.1960	C.2	1	fragment1	0.0000
189	C59    -1.8400     8.4230    -4.0560	C.2	1	fragment1	0.0000
190	C60    -0.4010     8.3240    -6.3970	C.2	1	fragment1	0.0000
191	C61    -2.4480     8.7260    -5.2570	C.2	1	fragment1	0.0000
192	C62    -1.7340     8.6780    -6.4360	C.2	1	fragment1	0.0000
193	O17    -2.3430     8.9820    -7.6370	O.3	1	fragment1	0.0000
194	H95     2.1620     7.3010    -1.0470	H	1	fragment1	0.0000
195	H96     1.6790     9.1090    -3.3330	H	1	fragment1	0.0000
196	H97     0.5840     6.7360    -2.7390	H	1	fragment1	0.0000
197	H98    -0.5620     7.7700    -1.8910	H	1	fragment1	0.0000
198	H99     1.2510     7.7390    -5.1800	H	1	fragment1	0.0000
199	H100    -2.4130     8.4630    -3.1420	H	1	fragment1	0.0000
200	H101     0.1700     8.2830    -7.3130	H	1	fragment1	0.0000
201	H102    -3.4930     8.9970    -5.2740	H	1	fragment1	0.0000
202	H103    -1.6610     9.2470    -8.2580	H	1	fragment1	0.0000
203	C63    -1.6210    12.5090    -2.1770	C.2	1	fragment1	0.0000
204	C64    -0.2700    12.1270    -1.5610	C.3	1	fragment1	0.0000
205	N19     0.2960    10.9360    -2.2710	N.3	1	fragment1	0.0000
206	O18    -1.9310    13.6730    -2.3320	O.2	1	fragment1	0.0000
207	C65     0.7000    13.2990    -1.7000	C.3	1	fragment1	0.0000
208	O19     0.7860    13.5150    -3.1010	O.3	1	fragment1	0.0000
209	H104     0.3410    10.9230    -3.2500	H	1	fragment1	0.0000
210	H105    -0.4060    11.8980    -0.5190	H	1	fragment1	0.0000
211	H106     0.3110    14.1790    -1.2090	H	1	fragment1	0.0000
212	H107     1.6710    13.0420    -1.3020	H	1	fragment1	0.0000
213	H108     1.5250    13.0030    -3.4360	H	1	fragment1	0.0000
214	C66    -4.7340    10.6820    -2.6860	C.2	1	fragment1	0.0000
215	C67    -3.7270    11.7840    -3.1210	C.3	1	fragment1	0.0000
216	N20    -2.3930    11.5130    -2.5120	N.3	1	fragment1	0.0000
217	O20    -4.7500     9.6150    -3.2650	O.2	1	fragment1	0.0000
218	C68    -3.5810    11.7480    -4.6420	C.3	1	fragment1	0.0000
219	C69    -3.6550    13.1760    -5.1850	C.3	1	fragment1	0.0000
220	C70    -3.3110    13.1660    -6.6760	C.3	1	fragment1	0.0000
221	C71    -3.1750    14.6080    -7.1680	C.3	1	fragment1	0.0000
222	N21    -2.9480    14.6380    -8.6400	N.3	1	fragment1	0.0000
223	H109    -2.0970    10.5910    -2.3630	H	1	fragment1	0.0000
224	H110    -4.0620    12.7540    -2.8280	H	1	fragment1	0.0000
225	H111    -2.6300    11.3090    -4.9060	H	1	fragment1	0.0000
226	H112    -4.3760    11.1570    -5.0690	H	1	fragment1	0.0000
227	H113    -4.6530    13.5650    -5.0470	H	1	fragment1	0.0000
228	H114    -2.9540    13.8030    -4.6550	H	1	fragment1	0.0000
229	H115    -2.3790    12.6410    -6.8300	H	1	fragment1	0.0000
230	H116    -4.0940    12.6670    -7.2260	H	1	fragment1	0.0000
231	H117    -4.0780    15.1550    -6.9390	H	1	fragment1	0.0000
232	H118    -2.3410    15.0830    -6.6720	H	1	fragment1	0.0000
233	H119    -2.9090    13.6650    -9.0040	H	1	fragment1	0.0000
234	H120    -3.7280    15.1500    -9.1000	H	1	fragment1	0.0000
235	H121    -2.0490    15.1210    -8.8420	H	1	fragment1	0.0000
236	C72    -7.4490     9.4820    -2.3200	C.2	1	fragment1	0.0000
237	C73    -6.5240     9.9490    -1.1930	C.3	1	fragment1	0.0000
238	N22    -5.5620    10.9530    -1.6720	N.3	1	fragment1	0.0000
239	O21    -7.9830    10.2830    -3.0620	O.2	1	fragment1	0.0000
240	C74    -7.3190    10.6430    -0.0810	C.3	1	fragment1	0.0000
241	C75    -6.6490    12.0270     0.1680	C.3	1	fragment1	0.0000
242	C76    -5.6130    12.2410    -0.9500	C.3	1	fragment1	0.0000
243	H122    -6.0010     9.1130    -0.7840	H	1	fragment1	0.0000
244	H123    -8.3450    10.7790    -0.3900	H	1	fragment1	0.0000
245	H124    -7.2880    10.0490     0.8210	H	1	fragment1	0.0000
246	H125    -7.3940    12.8080     0.1370	H	1	fragment1	0.0000
247	H126    -6.1600    12.0320     1.1310	H	1	fragment1	0.0000
248	H127    -5.9430    13.0290    -1.6110	H	1	fragment1	0.0000
249	H128    -4.6440    12.4770    -0.5350	H	1	fragment1	0.0000
250	C77    -9.4410     6.5620    -2.9100	C.2	1	fragment1	0.0000
251	C78    -8.4930     7.6240    -3.4880	C.3	1	fragment1	0.0000
252	N23    -7.6130     8.1830    -2.4180	N.3	1	fragment1	0.0000
253	O22    -9.6110     6.4610    -1.7110	O.2	1	fragment1	0.0000
254	C79    -7.6210     7.0040    -4.5790	C.3	1	fragment1	0.0000
255	C80    -6.7150     5.9380    -3.9630	C.2	1	fragment1	0.0000
256	C81    -5.5970     6.3000    -3.2320	C.2	1	fragment1	0.0000
257	C82    -7.0040     4.5990    -4.1300	C.2	1	fragment1	0.0000
258	C83    -4.7830     5.3320    -2.6780	C.2	1	fragment1	0.0000
259	C84    -6.1910     3.6340    -3.5770	C.2	1	fragment1	0.0000
260	C85    -5.0810     4.0000    -2.8520	C.2	1	fragment1	0.0000
261	H129    -7.1600     7.5810    -1.7910	H	1	fragment1	0.0000
262	H130    -9.0790     8.4170    -3.9180	H	1	fragment1	0.0000
263	H131    -8.2470     6.5470    -5.3310	H	1	fragment1	0.0000
264	H132    -7.0110     7.7670    -5.0380	H	1	fragment1	0.0000
265	H133    -5.3580     7.3440    -3.0950	H	1	fragment1	0.0000
266	H134    -7.8690     4.3060    -4.7020	H	1	fragment1	0.0000
267	H135    -3.9110     5.6200    -2.1100	H	1	fragment1	0.0000
268	H136    -6.4280     2.5900    -3.7120	H	1	fragment1	0.0000
269	H137    -4.4440     3.2420    -2.4190	H	1	fragment1	0.0000
270	C86   -10.4680     3.3200    -3.6840	C.2	1	fragment1	0.0000
271	C87   -11.0040     4.7400    -3.3440	C.3	1	fragment1	0.0000
272	N24   -10.0310     5.7950    -3.7880	N.3	1	fragment1	0.0000
273	O23    -9.8900     3.1300    -4.7350	O.2	1	fragment1	0.0000
274	C88   -12.2900     4.9680    -4.1320	C.3	1	fragment1	0.0000
275	C89   -13.4250     4.1800    -3.5100	C.2	1	fragment1	0.0000
276	N25   -13.5630     2.8680    -3.5820	N.2	1	fragment1	0.0000
277	C90   -14.6390     2.5380    -2.9450	C.2	1	fragment1	0.0000
278	C91   -14.5000     4.6450    -2.7750	C.2	1	fragment1	0.0000
279	N26   -15.1900     3.5900    -2.4700	N.3	1	fragment1	0.0000
280	H138    -9.8390     5.9120    -4.7410	H	1	fragment1	0.0000
281	H139   -11.2010     4.8460    -2.2900	H	1	fragment1	0.0000
282	H140   -12.5410     6.0180    -4.1240	H	1	fragment1	0.0000
283	H141   -12.1520     4.6440    -5.1530	H	1	fragment1	0.0000
284	H142   -14.7010     5.6590    -2.5080	H	1	fragment1	0.0000
285	H143   -15.0140     1.5330    -2.8370	H	1	fragment1	0.0000
286	H144   -16.0200     3.5990    -1.9480	H	1	fragment1	0.0000
287	C92   -10.8090     0.4940    -4.4260	C.2	1	fragment1	0.0000
288	C93   -10.2160     0.9680    -3.0910	C.3	1	fragment1	0.0000
289	N27   -10.6730     2.3330    -2.8000	N.3	1	fragment1	0.0000
290	O24   -10.3890    -0.4980    -4.9870	O.2	1	fragment1	0.0000
291	C94   -10.7330     0.1070    -1.9330	C.3	1	fragment1	0.0000
292	C95   -11.4620     1.0570    -0.9370	C.3	1	fragment1	0.0000
293	C96   -11.3360     2.4880    -1.4850	C.3	1	fragment1	0.0000
294	H145    -9.1480     0.9340    -3.1200	H	1	fragment1	0.0000
295	H146   -11.4210    -0.6380    -2.3040	H	1	fragment1	0.0000
296	H147    -9.9050    -0.3800    -1.4390	H	1	fragment1	0.0000
297	H148   -12.5040     0.7830    -0.8670	H	1	fragment1	0.0000
298	H149   -11.0070     0.9920     0.0360	H	1	fragment1	0.0000
299	H150   -12.3020     2.9280    -1.5930	H	1	fragment1	0.0000
300	H151   -10.7270     3.0880    -0.8320	H	1	fragment1	0.0000
301	C97   -11.3970     0.5270    -7.2640	C.2	1	fragment1	0.0000
302	C98   -12.4400     0.8830    -6.1900	C.3	1	fragment1	0.0000
303	N28   -11.7800     1.2280    -4.8930	N.3	1	fragment1	0.0000
304	O25   -11.7080    -0.1520    -8.2230	O.2	1	fragment1	0.0000
305	C99   -13.2390     2.0960    -6.6340	C.3	1	fragment1	0.0000
306	C100   -14.0840     1.7720    -7.8570	C.3	1	fragment1	0.0000
307	C101   -14.7280     3.0760    -8.3370	C.3	1	fragment1	0.0000
308	C102   -16.1160     2.8000    -8.8960	C.3	1	fragment1	0.0000
309	N29   -16.1660     1.4630    -9.5550	N.3	1	fragment1	0.0000
310	H152   -12.0850     2.0110    -4.3870	H	1	fragment1	0.0000
311	H153   -13.1030     0.0630    -6.0470	H	1	fragment1	0.0000
312	H154   -13.8850     2.4080    -5.8380	H	1	fragment1	0.0000
313	H155   -12.5660     2.8900    -6.8660	H	1	fragment1	0.0000
314	H156   -13.4620     1.3600    -8.6360	H	1	fragment1	0.0000
315	H157   -14.8500     1.0590    -7.5930	H	1	fragment1	0.0000
316	H158   -14.8050     3.7680    -7.5070	H	1	fragment1	0.0000
317	H159   -14.1210     3.5150    -9.1000	H	1	fragment1	0.0000
318	H160   -16.8350     2.8300    -8.0950	H	1	fragment1	0.0000
319	H161   -16.3640     3.5620    -9.6220	H	1	fragment1	0.0000
320	H162   -15.2000     1.0880    -9.6530	H	1	fragment1	0.0000
321	H163   -16.7340     0.8120    -8.9770	H	1	fragment1	0.0000
322	H164   -16.5980     1.5570   -10.4970	H	1	fragment1	0.0000
323	C103    -7.9710    -0.1160    -7.4550	C.2	1	fragment1	0.0000
324	C104    -9.1060     0.7040    -8.0850	C.3	1	fragment1	0.0000
325	N30   -10.1830     0.9920    -7.0750	N.3	1	fragment1	0.0000
326	O26    -6.8190     0.0360    -7.8170	O.2	1	fragment1	0.0000
327	C105    -8.5540     2.0320    -8.5990	C.3	1	fragment1	0.0000
328	C106    -9.7260     2.9560    -8.9380	C.2	1	fragment1	0.0000
329	C107   -10.3770     2.8480   -10.1550	C.2	1	fragment1	0.0000
330	C108   -10.1520     3.9110    -8.0320	C.2	1	fragment1	0.0000
331	C109   -11.4360     3.6790   -10.4570	C.2	1	fragment1	0.0000
332	C110   -11.2120     4.7400    -8.3370	C.2	1	fragment1	0.0000
333	C111   -11.8540     4.6220    -9.5480	C.2	1	fragment1	0.0000
334	H165    -9.9790     1.5240    -6.2780	H	1	fragment1	0.0000
335	H166    -9.5230     0.1540    -8.9100	H	1	fragment1	0.0000
336	H167    -7.9420     2.4940    -7.8390	H	1	fragment1	0.0000
337	H168    -7.9610     1.8650    -9.4860	H	1	fragment1	0.0000
338	H169   -10.0530     2.1090   -10.8720	H	1	fragment1	0.0000
339	H170    -9.6520     4.0080    -7.0790	H	1	fragment1	0.0000
340	H171   -11.9370     3.5880   -11.4090	H	1	fragment1	0.0000
341	H172   -11.5380     5.4840    -7.6250	H	1	fragment1	0.0000
342	H173   -12.7070     5.2510    -9.7730	H	1	fragment1	0.0000
343	C112    -7.6770    -3.2960    -5.9930	C.2	1	fragment1	0.0000
344	C113    -7.2980    -1.8220    -5.8570	C.3	1	fragment1	0.0000
345	N31    -8.3280    -0.9730    -6.5330	N.3	1	fragment1	0.0000
346	O27    -8.7450    -3.7010    -5.5790	O.2	1	fragment1	0.0000
347	C114    -7.2400    -1.4450    -4.3690	C.3	1	fragment1	0.0000
348	C115    -6.8450     0.0450    -4.2140	C.3	1	fragment1	0.0000
349	C116    -6.2260    -2.3400    -3.6430	C.3	1	fragment1	0.0000
350	C117    -5.4220     0.3100    -4.7420	C.3	1	fragment1	0.0000
351	H174    -9.2680    -1.0620    -6.2900	H	1	fragment1	0.0000
352	H175    -6.3450    -1.6660    -6.3100	H	1	fragment1	0.0000
353	H176    -8.2150    -1.5960    -3.9310	H	1	fragment1	0.0000
354	H177    -7.5430     0.6550    -4.7670	H	1	fragment1	0.0000
355	H178    -6.8940     0.3200    -3.1710	H	1	fragment1	0.0000
356	H179    -5.5570    -2.7890    -4.3610	H	1	fragment1	0.0000
357	H180    -5.6540    -1.7480    -2.9450	H	1	fragment1	0.0000
358	H181    -6.7470    -3.1180    -3.1060	H	1	fragment1	0.0000
359	H182    -4.9070    -0.6090    -4.9240	H	1	fragment1	0.0000
360	H183    -5.4780     0.8700    -5.6600	H	1	fragment1	0.0000
361	H184    -4.8680     0.8840    -4.0150	H	1	fragment1	0.0000
362	C118    -6.1290    -6.3590    -5.9020	C.2	1	fragment1	0.0000
363	C119    -7.0710    -5.5120    -6.7590	C.3	1	fragment1	0.0000
364	N32    -6.7870    -4.0650    -6.5720	N.3	1	fragment1	0.0000
365	O28    -6.4440    -7.4850    -5.5660	O.2	1	fragment1	0.0000
366	C120    -6.8820    -5.8710    -8.2310	C.3	1	fragment1	0.0000
367	C121    -8.1230    -5.4380    -9.0150	C.3	1	fragment1	0.0000
368	C122    -9.1230    -6.5950    -9.0500	C.3	1	fragment1	0.0000
369	C123   -10.3970    -6.1360    -9.7630	C.3	1	fragment1	0.0000
370	N33   -11.5390    -6.0860    -8.8080	N.3	1	fragment1	0.0000
371	H185    -5.9420    -3.6940    -6.8750	H	1	fragment1	0.0000
372	H186    -8.0780    -5.7120    -6.4760	H	1	fragment1	0.0000
373	H187    -6.0120    -5.3630    -8.6200	H	1	fragment1	0.0000
374	H188    -6.7440    -6.9370    -8.3300	H	1	fragment1	0.0000
375	H189    -8.5750    -4.5820    -8.5360	H	1	fragment1	0.0000
376	H190    -7.8410    -5.1710   -10.0230	H	1	fragment1	0.0000
377	H191    -8.6920    -7.4310    -9.5810	H	1	fragment1	0.0000
378	H192    -9.3610    -6.8990    -8.0420	H	1	fragment1	0.0000
379	H193   -10.2430    -5.1520   -10.1810	H	1	fragment1	0.0000
380	H194   -10.6340    -6.8240   -10.5600	H	1	fragment1	0.0000
381	H195   -11.5860    -6.9790    -8.2770	H	1	fragment1	0.0000
382	H196   -11.4030    -5.2950    -8.1460	H	1	fragment1	0.0000
383	H197   -12.4250    -5.9480    -9.3340	H	1	fragment1	0.0000
384	C124    -3.3160    -5.6650    -3.7310	C.2	1	fragment1	0.0000
385	C125    -4.0260    -6.5880    -4.7280	C.3	1	fragment1	0.0000
386	N34    -4.9920    -5.8060    -5.5650	N.3	1	fragment1	0.0000
387	O29    -2.8600    -4.6000    -4.0910	O.2	1	fragment1	0.0000
388	C126    -2.9970    -7.2520    -5.6430	C.3	1	fragment1	0.0000
389	C127    -1.7700    -7.6500    -4.8190	C.3	1	fragment1	0.0000
390	C128    -0.9750    -8.7140    -5.5800	C.2	1	fragment1	0.0000
391	O30    -1.0810    -8.7030    -6.7960	O.2	1	fragment1	0.0000
392	O31    -0.3080    -9.4790    -4.9030	O.3	1	fragment1	0.0000
393	H198    -4.7740    -4.8860    -5.8590	H	1	fragment1	0.0000
394	H199    -4.5610    -7.3520    -4.1860	H	1	fragment1	0.0000
395	H200    -3.4300    -8.1320    -6.0940	H	1	fragment1	0.0000
396	H201    -2.7070    -6.5650    -6.4210	H	1	fragment1	0.0000
397	H202    -1.1430    -6.7870    -4.6550	H	1	fragment1	0.0000
398	H203    -2.0820    -8.0510    -3.8660	H	1	fragment1	0.0000
399	C129    -1.2520    -5.9180    -1.0120	C.2	1	fragment1	0.0000
400	C130    -2.5700    -5.2690    -1.4480	C.3	1	fragment1	0.0000
401	N35    -3.2390    -6.1020    -2.4950	N.3	1	fragment1	0.0000
402	O32    -1.1270    -7.1270    -1.0060	O.2	1	fragment1	0.0000
403	C131    -3.4970    -5.1480    -0.2400	C.3	1	fragment1	0.0000
404	C132    -3.0790    -3.9360     0.5940	C.3	1	fragment1	0.0000
405	C133    -3.8450    -2.7050     0.1090	C.3	1	fragment1	0.0000
406	C134    -3.4190    -4.1940     2.0630	C.3	1	fragment1	0.0000
407	H204    -3.6150    -6.9700    -2.2580	H	1	fragment1	0.0000
408	H205    -2.3720    -4.2910    -1.8400	H	1	fragment1	0.0000
409	H206    -4.5160    -5.0240    -0.5760	H	1	fragment1	0.0000
410	H207    -3.4290    -6.0430     0.3610	H	1	fragment1	0.0000
411	H208    -2.0170    -3.7710     0.4880	H	1	fragment1	0.0000
412	H209    -3.9880    -2.7630    -0.9600	H	1	fragment1	0.0000
413	H210    -4.8080    -2.6610     0.5950	H	1	fragment1	0.0000
414	H211    -3.2850    -1.8120     0.3460	H	1	fragment1	0.0000
415	H212    -4.4390    -4.5390     2.1460	H	1	fragment1	0.0000
416	H213    -2.7550    -4.9460     2.4640	H	1	fragment1	0.0000
417	H214    -3.3050    -3.2810     2.6290	H	1	fragment1	0.0000
418	C135     1.5210    -4.8880     1.0250	C.2	1	fragment1	0.0000
419	C136     1.0220    -5.6380    -0.2120	C.3	1	fragment1	0.0000
420	N36    -0.3010    -5.0950    -0.6510	N.3	1	fragment1	0.0000
421	O33     1.3110    -3.6990     1.1600	O.2	1	fragment1	0.0000
422	C137     2.0240    -5.4680    -1.3420	C.3	1	fragment1	0.0000
423	C138     1.8260    -6.5800    -2.3750	C.3	1	fragment1	0.0000
424	C139     2.0230    -5.9970    -3.7740	C.3	1	fragment1	0.0000
425	C140     2.9380    -7.6780    -5.2500	C.2	1	fragment1	0.0000
426	N37     1.8730    -7.0880    -4.7770	N.3	1	fragment1	0.0000
427	N38     4.0570    -7.5960    -4.5820	N.3	1	fragment1	0.0000
428	N39     2.8470    -8.3310    -6.3760	N.2	1	fragment1	0.0000
429	H215    -0.4540    -4.1270    -0.6660	H	1	fragment1	0.0000
430	H216     0.9260    -6.6730     0.0180	H	1	fragment1	0.0000
431	H217     1.8700    -4.5190    -1.8060	H	1	fragment1	0.0000
432	H218     3.0290    -5.5120    -0.9480	H	1	fragment1	0.0000
433	H219     2.5450    -7.3670    -2.2050	H	1	fragment1	0.0000
434	H220     0.8300    -6.9840    -2.2910	H	1	fragment1	0.0000
435	H221     1.2800    -5.2360    -3.9620	H	1	fragment1	0.0000
436	H222     3.0080    -5.5640    -3.8570	H	1	fragment1	0.0000
437	H223     0.9820    -7.3610    -5.0800	H	1	fragment1	0.0000
438	H224     4.0890    -7.0870    -3.7220	H	1	fragment1	0.0000
439	H225     4.8810    -8.0410    -4.9320	H	1	fragment1	0.0000
440	H226     1.9730    -8.3730    -6.8600	H	1	fragment1	0.0000
441	H227     3.6510    -8.7890    -6.7540	H	1	fragment1	0.0000
442	C141     4.0530    -5.5430     3.5110	C.2	1	fragment1	0.0000
443	C142     2.6940    -4.9470     3.1350	C.3	1	fragment1	0.0000
444	N40     2.1710    -5.6010     1.9020	N.3	1	fragment1	0.0000
445	O34     4.1840    -6.7420     3.6570	O.2	1	fragment1	0.0000
446	C143     1.7060    -5.1740     4.2750	C.3	1	fragment1	0.0000
447	C144     2.0700    -4.2600     5.4460	C.3	1	fragment1	0.0000
448	C145     0.2930    -4.8380     3.7920	C.3	1	fragment1	0.0000
449	H228     2.3100    -6.5590     1.7540	H	1	fragment1	0.0000
450	H229     2.8030    -3.8910     2.9630	H	1	fragment1	0.0000
451	H230     1.7470    -6.2050     4.5920	H	1	fragment1	0.0000
452	H231     2.1010    -3.2340     5.1110	H	1	fragment1	0.0000
453	H232     1.3300    -4.3570     6.2270	H	1	fragment1	0.0000
454	H233     3.0380    -4.5370     5.8370	H	1	fragment1	0.0000
455	H234     0.2990    -3.8880     3.2790	H	1	fragment1	0.0000
456	H235    -0.0530    -5.6060     3.1160	H	1	fragment1	0.0000
457	H236    -0.3770    -4.7800     4.6370	H	1	fragment1	0.0000
458	C146     6.8630    -4.4970     5.3170	C.2	1	fragment1	0.0000
459	C147     6.4020    -5.1750     4.0260	C.3	1	fragment1	0.0000
460	N41     5.0350    -4.6870     3.6550	N.3	1	fragment1	0.0000
461	O35     7.0360    -3.2950     5.3650	O.2	1	fragment1	0.0000
462	C148     7.3760    -4.8440     2.8900	C.3	1	fragment1	0.0000
463	C149     7.0830    -5.7610     1.7000	C.3	1	fragment1	0.0000
464	C150     8.8150    -5.0740     3.3620	C.3	1	fragment1	0.0000
465	C151     7.0790    -4.9300     0.4170	C.3	1	fragment1	0.0000
466	H237     4.8750    -3.7280     3.5220	H	1	fragment1	0.0000
467	H238     6.3780    -6.2410     4.1770	H	1	fragment1	0.0000
468	H239     7.2550    -3.8140     2.5950	H	1	fragment1	0.0000
469	H240     7.8420    -6.5270     1.6340	H	1	fragment1	0.0000
470	H241     6.1180    -6.2290     1.8310	H	1	fragment1	0.0000
471	H242     8.8800    -6.0140     3.8900	H	1	fragment1	0.0000
472	H243     9.4790    -5.0990     2.5100	H	1	fragment1	0.0000
473	H244     9.1160    -4.2740     4.0220	H	1	fragment1	0.0000
474	H245     7.9770    -4.3300     0.3680	H	1	fragment1	0.0000
475	H246     7.0420    -5.5840    -0.4420	H	1	fragment1	0.0000
476	H247     6.2170    -4.2800     0.4070	H	1	fragment1	0.0000
477	C152     8.9770    -4.3340     7.5740	C.2	1	fragment1	0.0000
478	C153     7.4940    -4.7120     7.6380	C.3	1	fragment1	0.0000
479	N42     7.0510    -5.2860     6.3360	N.3	1	fragment1	0.0000
480	O36     9.6900    -4.7730     6.6940	O.2	1	fragment1	0.0000
481	C154     7.2770    -5.7540     8.7340	C.3	1	fragment1	0.0000
482	C155     7.8820    -5.2410    10.0420	C.3	1	fragment1	0.0000
483	C156     7.2960    -6.0320    11.2130	C.2	1	fragment1	0.0000
484	O37     6.2250    -5.6410    11.6480	O.2	1	fragment1	0.0000
485	O38     7.9510    -6.9830    11.6060	O.3	1	fragment1	0.0000
486	H248     6.9040    -6.2520     6.2470	H	1	fragment1	0.0000
487	H249     6.9100    -3.8350     7.8610	H	1	fragment1	0.0000
488	H250     6.2200    -5.9270     8.8660	H	1	fragment1	0.0000
489	H251     7.7540    -6.6810     8.4510	H	1	fragment1	0.0000
490	H252     8.9540    -5.3710    10.0250	H	1	fragment1	0.0000
491	H253     7.6510    -4.1940    10.1670	H	1	fragment1	0.0000
492	C157    11.7450    -4.2910     8.2040	C.2	1	fragment1	0.0000
493	C158    10.8390    -3.1000     8.5280	C.3	1	fragment1	0.0000
494	N43     9.4030    -3.5190     8.5070	N.3	1	fragment1	0.0000
495	O39    11.5260    -5.3880     8.6800	O.2	1	fragment1	0.0000
496	C159    11.1850    -2.5680     9.9190	C.3	1	fragment1	0.0000
497	O40    11.5150    -3.7330    10.6620	O.3	1	fragment1	0.0000
498	H254     8.7820    -3.1780     9.1850	H	1	fragment1	0.0000
499	H255    10.9970    -2.3210     7.7990	H	1	fragment1	0.0000
500	H256    12.0330    -1.9010     9.8740	H	1	fragment1	0.0000
501	H257    10.3350    -2.0720    10.3620	H	1	fragment1	0.0000
502	H258    11.7570    -3.4600    11.5500	H	1	fragment1	0.0000
503	C160    15.1250    -4.6270     7.0620	C.2	1	fragment1	0.0000
504	C161    13.6790    -5.1390     7.0200	C.3	1	fragment1	0.0000
505	N44    12.7410    -4.0440     7.3970	N.3	1	fragment1	0.0000
506	O41    15.3920    -3.5470     7.5500	O.2	1	fragment1	0.0000
507	H259    12.8710    -3.1410     7.0390	H	1	fragment1	0.0000
508	H260    13.5690    -5.9590     7.7120	H	1	fragment1	0.0000
509	H261    13.4410    -5.4760     6.0240	H	1	fragment1	0.0000
510	C162    17.6690    -3.9300     5.5180	C.2	1	fragment1	0.0000
511	C163    17.4540    -5.0660     6.5160	C.3	1	fragment1	0.0000
512	N45    16.0310    -5.4260     6.5430	N.3	1	fragment1	0.0000
513	O42    18.7710    -3.4560     5.3230	O.2	1	fragment1	0.0000
514	C164    18.1770    -6.3360     6.0530	C.3	1	fragment1	0.0000
515	C165    17.0790    -7.3920     5.7050	C.3	1	fragment1	0.0000
516	C166    15.7110    -6.7270     5.9470	C.3	1	fragment1	0.0000
517	H262    17.7920    -4.7830     7.4950	H	1	fragment1	0.0000
518	H263    18.7760    -6.1230     5.1800	H	1	fragment1	0.0000
519	H264    18.8110    -6.7090     6.8440	H	1	fragment1	0.0000
520	H265    17.1670    -7.6880     4.6690	H	1	fragment1	0.0000
521	H266    17.1860    -8.2590     6.3390	H	1	fragment1	0.0000
522	H267    15.1920    -6.5890     5.0100	H	1	fragment1	0.0000
523	H268    15.1120    -7.3130     6.6240	H	1	fragment1	0.0000
524	C167    15.7500    -1.2770     4.3630	C.2	1	fragment1	0.0000
525	C168    16.6440    -2.4330     3.9070	C.3	1	fragment1	0.0000
526	N46    16.5890    -3.5290     4.9120	N.3	1	fragment1	0.0000
527	O43    15.8350    -0.1790     3.8490	O.2	1	fragment1	0.0000
528	C169    16.1220    -2.9830     2.5880	C.3	1	fragment1	0.0000
529	C170    14.5990    -3.1020     2.6800	C.2	1	fragment1	0.0000
530	N47    13.9670    -3.7870     3.5760	N.2	1	fragment1	0.0000
531	C171    12.7010    -3.6820     3.4230	C.2	1	fragment1	0.0000
532	C172    13.6040    -2.5160     1.8940	C.2	1	fragment1	0.0000
533	N48    12.4500    -2.9090     2.4030	N.3	1	fragment1	0.0000
534	H269    15.7300    -3.9530     5.1200	H	1	fragment1	0.0000
535	H270    17.6560    -2.0860     3.7820	H	1	fragment1	0.0000
536	H271    16.3870    -2.3230     1.7840	H	1	fragment1	0.0000
537	H272    16.5460    -3.9590     2.4050	H	1	fragment1	0.0000
538	H273    14.4000    -4.3170     4.2780	H	1	fragment1	0.0000
539	H274    13.7480    -1.8880     1.0390	H	1	fragment1	0.0000
540	H275    11.9600    -4.1660     4.0430	H	1	fragment1	0.0000
541	C173    13.8240    -0.6170     7.3520	C.2	1	fragment1	0.0000
542	C174    13.9900    -0.4950     5.8320	C.3	1	fragment1	0.0000
543	N49    14.9090    -1.5560     5.3250	N.3	1	fragment1	0.0000
544	O44    13.6110    -1.6950     7.8700	O.2	1	fragment1	0.0000
545	C175    12.6260    -0.6590     5.1590	C.3	1	fragment1	0.0000
546	S3    11.6180     0.8300     4.9170	S.3	1	fragment1	0.0000
547	H276    14.8830    -2.4560     5.7100	H	1	fragment1	0.0000
548	H277    14.3930     0.4720     5.5940	H	1	fragment1	0.0000
549	H278    12.7810    -1.1140     4.1910	H	1	fragment1	0.0000
550	H279    12.0440    -1.3500     5.7520	H	1	fragment1	0.0000
551	C176    12.3610     0.9280     9.9020	C.2	1	fragment1	0.0000
552	C177    13.7720     0.4730     9.5140	C.3	1	fragment1	0.0000
553	N50    13.9240     0.4950     8.0290	N.3	1	fragment1	0.0000
554	O45    12.1460     1.4430    10.9810	O.2	1	fragment1	0.0000
555	C178    14.8020     1.4160    10.1350	C.3	1	fragment1	0.0000
556	H280    14.0960     1.3380     7.5670	H	1	fragment1	0.0000
557	H281    13.9390    -0.5240     9.8750	H	1	fragment1	0.0000
558	H282    15.7920     1.1500     9.7950	H	1	fragment1	0.0000
559	H283    14.5870     2.4330     9.8440	H	1	fragment1	0.0000
560	H284    14.7630     1.3390    11.2120	H	1	fragment1	0.0000
561	C179     9.0360     0.1840     8.6420	C.2	1	fragment1	0.0000
562	C180    10.0260     1.1430     9.3010	C.3	1	fragment1	0.0000
563	N51    11.4300     0.7250     9.0100	N.3	1	fragment1	0.0000
564	O46     9.2670    -1.0010     8.5640	O.2	1	fragment1	0.0000
565	C181     9.8080     2.5540     8.7520	C.3	1	fragment1	0.0000
566	C182    10.9240     3.4720     9.2580	C.2	1	fragment1	0.0000
567	O47    11.6980     4.0080     8.4900	O.2	1	fragment1	0.0000
568	N52    11.0390     3.6820    10.5410	N.3	1	fragment1	0.0000
569	H285    11.6520     0.3020     8.1540	H	1	fragment1	0.0000
570	H286     9.8600     1.1480    10.3570	H	1	fragment1	0.0000
571	H287     9.8260     2.5340     7.6720	H	1	fragment1	0.0000
572	H288     8.8550     2.9340     9.0870	H	1	fragment1	0.0000
573	H289    10.4170     3.2530    11.1650	H	1	fragment1	0.0000
574	H290    11.7470     4.2680    10.8800	H	1	fragment1	0.0000
575	C183     6.4170     0.5940     6.2640	C.2	1	fragment1	0.0000
576	C184     6.9110    -0.1100     7.5320	C.3	1	fragment1	0.0000
577	N53     7.9500     0.7270     8.2050	N.3	1	fragment1	0.0000
578	O48     6.1660     1.7840     6.2740	O.2	1	fragment1	0.0000
579	C185     5.7480    -0.3300     8.4970	C.3	1	fragment1	0.0000
580	C186     4.3980    -0.3660     7.7780	C.3	1	fragment1	0.0000
581	O49     5.9400    -1.6490     8.9980	O.3	1	fragment1	0.0000
582	H291     7.8100     1.6790     8.3250	H	1	fragment1	0.0000
583	H292     7.3310    -1.0560     7.2710	H	1	fragment1	0.0000
584	H293     5.7510     0.3860     9.2850	H	1	fragment1	0.0000
585	H294     5.1110    -1.9440     9.3820	H	1	fragment1	0.0000
586	H295     4.4650    -0.9990     6.9050	H	1	fragment1	0.0000
587	H296     3.6430    -0.7600     8.4420	H	1	fragment1	0.0000
588	H297     4.1180     0.6320     7.4750	H	1	fragment1	0.0000
589	C187     4.6770    -0.3910     3.3320	C.2	1	fragment1	0.0000
590	C188     5.8200     0.4430     3.9140	C.3	1	fragment1	0.0000
591	N54     6.2910    -0.1590     5.2010	N.3	1	fragment1	0.0000
592	O50     4.8570    -1.5430     2.9900	O.2	1	fragment1	0.0000
593	C189     6.9830     0.4740     2.9230	C.3	1	fragment1	0.0000
594	C190     8.1560    -0.3230     3.4990	C.3	1	fragment1	0.0000
595	C191     9.2720    -0.4070     2.4560	C.2	1	fragment1	0.0000
596	O51     9.2800     0.4620     1.6000	O.2	1	fragment1	0.0000
597	O52    10.0550    -1.3360     2.5740	O.3	1	fragment1	0.0000
598	H298     6.5030    -1.1160     5.2470	H	1	fragment1	0.0000
599	H299     5.4750     1.4460     4.0880	H	1	fragment1	0.0000
600	H300     6.6730     0.0370     1.9850	H	1	fragment1	0.0000
601	H301     7.2880     1.4960     2.7530	H	1	fragment1	0.0000
602	H302     8.5330     0.1670     4.3840	H	1	fragment1	0.0000
603	H303     7.8310    -1.3210     3.7530	H	1	fragment1	0.0000
604	C192     2.3120    -0.3930     1.1510	C.2	1	fragment1	0.0000
605	C193     2.3590    -0.5380     2.6750	C.3	1	fragment1	0.0000
606	N55     3.5220     0.2090     3.2310	N.3	1	fragment1	0.0000
607	O53     1.9020     0.6280     0.6360	O.2	1	fragment1	0.0000
608	C194     1.0670     0.0200     3.2760	C.3	1	fragment1	0.0000
609	C195     1.1840     0.0300     4.8030	C.3	1	fragment1	0.0000
610	C196    -0.1060    -0.8710     2.8630	C.3	1	fragment1	0.0000
611	C197    -0.1040     0.6010     5.4020	C.3	1	fragment1	0.0000
612	H304     3.4210     1.1410     3.5180	H	1	fragment1	0.0000
613	H305     2.4480    -1.5790     2.9320	H	1	fragment1	0.0000
614	H306     0.9010     1.0220     2.9160	H	1	fragment1	0.0000
615	H307     1.3360    -0.9770     5.1620	H	1	fragment1	0.0000
616	H308     2.0230     0.6420     5.0990	H	1	fragment1	0.0000
617	H309     0.2320    -1.6150     2.1560	H	1	fragment1	0.0000
618	H310    -0.5110    -1.3670     3.7320	H	1	fragment1	0.0000
619	H311    -0.8770    -0.2700     2.4040	H	1	fragment1	0.0000
620	H312    -0.7490     0.9550     4.6110	H	1	fragment1	0.0000
621	H313    -0.6180    -0.1670     5.9610	H	1	fragment1	0.0000
622	H314     0.1330     1.4220     6.0610	H	1	fragment1	0.0000
623	C198     1.3610    -1.8770    -1.5300	C.2	1	fragment1	0.0000
624	C199     2.7060    -1.3540    -1.0270	C.3	1	fragment1	0.0000
625	N56     2.7350    -1.4170     0.4620	N.3	1	fragment1	0.0000
626	O54     0.7020    -2.6420    -0.8560	O.2	1	fragment1	0.0000
627	C200     3.8450    -2.2060    -1.5960	C.3	1	fragment1	0.0000
628	C201     5.1830    -1.6180    -1.1220	C.3	1	fragment1	0.0000
629	C202     3.7810    -2.1740    -3.1310	C.3	1	fragment1	0.0000
630	C203     6.3420    -2.4960    -1.6080	C.3	1	fragment1	0.0000
631	H315     3.0690    -2.2190     0.9190	H	1	fragment1	0.0000
632	H316     2.8320    -0.3320    -1.3440	H	1	fragment1	0.0000
633	H317     3.7460    -3.2230    -1.2500	H	1	fragment1	0.0000
634	H318     5.2970    -0.6190    -1.5160	H	1	fragment1	0.0000
635	H319     5.1940    -1.5720    -0.0430	H	1	fragment1	0.0000
636	H320     3.7500    -1.1500    -3.4720	H	1	fragment1	0.0000
637	H321     4.6500    -2.6600    -3.5470	H	1	fragment1	0.0000
638	H322     2.8950    -2.6890    -3.4700	H	1	fragment1	0.0000
639	H323     5.9910    -3.5000    -1.7920	H	1	fragment1	0.0000
640	H324     6.7470    -2.0900    -2.5230	H	1	fragment1	0.0000
641	H325     7.1180    -2.5230    -0.8580	H	1	fragment1	0.0000
642	C204    -0.2740    -2.0390    -4.7660	C.2	1	fragment1	0.0000
643	C205    -0.3280    -1.9190    -3.2400	C.3	1	fragment1	0.0000
644	N57     0.9780    -1.4570    -2.7010	N.3	1	fragment1	0.0000
645	O55     0.5830    -1.4610    -5.4070	O.2	1	fragment1	0.0000
646	C206    -1.4010    -0.9130    -2.8420	C.3	1	fragment1	0.0000
647	C207    -0.9980     0.4760    -3.3390	C.3	1	fragment1	0.0000
648	C208    -2.7220    -1.3100    -3.4860	C.3	1	fragment1	0.0000
649	H326     1.5400    -0.8490    -3.2180	H	1	fragment1	0.0000
650	H327    -0.5680    -2.8760    -2.8170	H	1	fragment1	0.0000
651	H328    -1.5090    -0.8990    -1.7670	H	1	fragment1	0.0000
652	H329    -0.0360     0.7450    -2.9290	H	1	fragment1	0.0000
653	H330    -0.9370     0.4740    -4.4170	H	1	fragment1	0.0000
654	H331    -1.7340     1.2030    -3.0270	H	1	fragment1	0.0000
655	H332    -2.8880    -2.3680    -3.3560	H	1	fragment1	0.0000
656	H333    -3.5300    -0.7640    -3.0260	H	1	fragment1	0.0000
657	H334    -2.6910    -1.0820    -4.5380	H	1	fragment1	0.0000
658	C209    -2.6020    -2.5390    -7.3480	C.2	1	fragment1	0.0000
659	C210    -1.2420    -2.9800    -6.7910	C.3	1	fragment1	0.0000
660	N58    -1.2020    -2.7910    -5.3090	N.3	1	fragment1	0.0000
661	O56    -3.6280    -3.1530    -7.0730	O.2	1	fragment1	0.0000
662	C211    -1.0120    -4.4570    -7.1050	C.3	1	fragment1	0.0000
663	C212     0.3190    -4.6160    -7.8440	C.3	1	fragment1	0.0000
664	C213     0.2100    -3.9700    -9.2260	C.3	1	fragment1	0.0000
665	C214     0.3830    -5.0470   -10.2990	C.3	1	fragment1	0.0000
666	N59    -0.6570    -6.1030   -10.1510	N.3	1	fragment1	0.0000
667	H335    -1.8720    -3.2270    -4.7430	H	1	fragment1	0.0000
668	H336    -0.4670    -2.3960    -7.2500	H	1	fragment1	0.0000
669	H337    -0.9810    -5.0190    -6.1850	H	1	fragment1	0.0000
670	H338    -1.8180    -4.8270    -7.7210	H	1	fragment1	0.0000
671	H339     1.1070    -4.1370    -7.2810	H	1	fragment1	0.0000
672	H340     0.5500    -5.6650    -7.9520	H	1	fragment1	0.0000
673	H341    -0.7570    -3.5010    -9.3340	H	1	fragment1	0.0000
674	H342     0.9800    -3.2220    -9.3370	H	1	fragment1	0.0000
675	H343     0.2960    -4.5990   -11.2780	H	1	fragment1	0.0000
676	H344     1.3600    -5.4980   -10.2030	H	1	fragment1	0.0000
677	H345    -1.2470    -5.8950    -9.3200	H	1	fragment1	0.0000
678	H346    -1.2540    -6.1220   -11.0030	H	1	fragment1	0.0000
679	H347    -0.1980    -7.0270   -10.0280	H	1	fragment1	0.0000
680	C215    -4.2830    -1.8810    -9.8670	C.2	1	fragment1	0.0000
681	C216    -3.8460    -0.9690    -8.7180	C.3	1	fragment1	0.0000
682	N60    -2.5790    -1.4800    -8.1190	N.3	1	fragment1	0.0000
683	O57    -3.4600    -2.3940   -10.6010	O.2	1	fragment1	0.0000
684	C217    -3.6140     0.4440    -9.2560	C.3	1	fragment1	0.0000
685	C218    -3.6770     1.4510    -8.1050	C.3	1	fragment1	0.0000
686	C219    -2.7600     0.9880    -6.9710	C.3	1	fragment1	0.0000
687	C220    -3.2040     2.8180    -8.6060	C.3	1	fragment1	0.0000
688	H348    -1.7300    -1.0250    -8.3030	H	1	fragment1	0.0000
689	H349    -4.6160    -0.9440    -7.9660	H	1	fragment1	0.0000
690	H350    -2.6460     0.4960    -9.7280	H	1	fragment1	0.0000
691	H351    -4.3740     0.6810    -9.9830	H	1	fragment1	0.0000
692	H352    -4.6910     1.5290    -7.7470	H	1	fragment1	0.0000
693	H353    -1.8080     0.6770    -7.3750	H	1	fragment1	0.0000
694	H354    -2.6020     1.8000    -6.2760	H	1	fragment1	0.0000
695	H355    -3.2140     0.1590    -6.4500	H	1	fragment1	0.0000
696	H356    -3.6610     3.0350    -9.5600	H	1	fragment1	0.0000
697	H357    -3.4830     3.5830    -7.8960	H	1	fragment1	0.0000
698	H358    -2.1300     2.8130    -8.7190	H	1	fragment1	0.0000
699	C221    -5.4970    -2.5590   -12.4460	C.2	1	fragment1	0.0000
700	C222    -6.0970    -2.9390   -11.0840	C.3	1	fragment1	0.0000
701	N61    -5.5710    -2.0550    -9.9970	N.3	1	fragment1	0.0000
702	O58    -5.2860    -3.4100   -13.2880	O.2	1	fragment1	0.0000
703	C223    -7.6180    -2.8000   -11.1450	C.3	1	fragment1	0.0000
704	O59    -7.8290    -1.5400   -11.7650	O.3	1	fragment1	0.0000
705	H359    -6.1920    -1.6070    -9.3820	H	1	fragment1	0.0000
706	H360    -5.8470    -3.9610   -10.8600	H	1	fragment1	0.0000
707	H361    -8.0510    -3.5880   -11.7430	H	1	fragment1	0.0000
708	H362    -8.0430    -2.8040   -10.1520	H	1	fragment1	0.0000
709	H363    -8.7420    -1.2850   -11.6140	H	1	fragment1	0.0000
710	C224    -3.3180    -1.5700   -14.1930	C.2	1	fragment1	0.0000
711	C225    -4.6540    -0.8620   -13.9460	C.3	1	fragment1	0.0000
712	N62    -5.2330    -1.2950   -12.6360	N.3	1	fragment1	0.0000
713	O60    -2.7240    -1.4350   -15.2440	O.2	1	fragment1	0.0000
714	C226    -4.4370     0.6500   -13.9280	C.3	1	fragment1	0.0000
715	C227    -4.0200     1.0830   -12.5250	C.2	1	fragment1	0.0000
716	O61    -3.0460     0.5210   -12.0520	O.2	1	fragment1	0.0000
717	O62    -4.6980     1.9520   -12.0030	O.3	1	fragment1	0.0000
718	H364    -5.4100    -0.6400   -11.9310	H	1	fragment1	0.0000
719	H365    -5.3400    -1.1120   -14.7380	H	1	fragment1	0.0000
720	H366    -3.6590     0.9160   -14.6290	H	1	fragment1	0.0000
721	H367    -5.3520     1.1550   -14.2010	H	1	fragment1	0.0000
722	C228    -0.4120    -2.1810   -12.9030	C.2	1	fragment1	0.0000
723	C229    -1.5880    -3.0410   -13.3730	C.3	1	fragment1	0.0000
724	N63    -2.8760    -2.3100   -13.2150	N.3	1	fragment1	0.0000
725	O63     0.6920    -2.3280   -13.3910	O.2	1	fragment1	0.0000
726	H368    -3.3880    -2.3860   -12.3860	H	1	fragment1	0.0000
727	H369    -1.6210    -3.9490   -12.7880	H	1	fragment1	0.0000
728	H370    -1.4490    -3.2950   -14.4130	H	1	fragment1	0.0000
729	C230     0.6990    -0.7080    -9.9650	C.2	1	fragment1	0.0000
730	C231     0.4300    -0.4190   -11.4460	C.3	1	fragment1	0.0000
731	N64    -0.6720    -1.3010   -11.9630	N.3	1	fragment1	0.0000
732	O64    -0.1770    -1.1540    -9.2500	O.2	1	fragment1	0.0000
733	C232     0.0200     1.0410   -11.6100	C.3	1	fragment1	0.0000
734	C233    -0.0080     1.3840   -13.1000	C.3	1	fragment1	0.0000
735	C234    -0.8640     2.6320   -13.3130	C.3	1	fragment1	0.0000
736	C235    -0.2700     4.9690   -13.1640	C.2	1	fragment1	0.0000
737	N65    -0.2250     3.7850   -12.6170	N.3	1	fragment1	0.0000
738	N66    -1.4290     5.5510   -13.3130	N.3	1	fragment1	0.0000
739	N67     0.8450     5.5320   -13.5440	N.2	1	fragment1	0.0000
740	H371    -1.5850    -1.2180   -11.6020	H	1	fragment1	0.0000
741	H372     1.3290    -0.5970   -12.0080	H	1	fragment1	0.0000
742	H373    -0.9570     1.1930   -11.1820	H	1	fragment1	0.0000
743	H374     0.7320     1.6760   -11.1040	H	1	fragment1	0.0000
744	H375     0.9970     1.5710   -13.4480	H	1	fragment1	0.0000
745	H376    -0.4270     0.5580   -13.6550	H	1	fragment1	0.0000
746	H377    -0.9400     2.8470   -14.3670	H	1	fragment1	0.0000
747	H378    -1.8520     2.4730   -12.9100	H	1	fragment1	0.0000
748	H379     0.2260     3.6540   -11.7570	H	1	fragment1	0.0000
749	H380    -2.2630     5.0900   -13.0100	H	1	fragment1	0.0000
750	H381    -1.4820     6.4590   -13.7300	H	1	fragment1	0.0000
751	H382     1.7150     5.0560   -13.4140	H	1	fragment1	0.0000
752	H383     0.8290     6.4390   -13.9650	H	1	fragment1	0.0000
753	C236     2.7220     0.6120    -7.4380	C.2	1	fragment1	0.0000
754	C237     2.2820    -0.6940    -8.1120	C.3	1	fragment1	0.0000
755	N68     1.9140    -0.4450    -9.5440	N.3	1	fragment1	0.0000
756	O65     3.7710     1.1460    -7.7410	O.2	1	fragment1	0.0000
757	C238     3.4290    -1.7060    -8.0580	C.3	1	fragment1	0.0000
758	C239     4.4890    -1.3350    -9.1000	C.3	1	fragment1	0.0000
759	C240     4.4300    -2.3310   -10.2600	C.2	1	fragment1	0.0000
760	O66     3.4240    -2.3000   -10.9490	O.2	1	fragment1	0.0000
761	O67     5.3940    -3.0670   -10.3910	O.3	1	fragment1	0.0000
762	H384     2.5800    -0.0860   -10.1650	H	1	fragment1	0.0000
763	H385     1.4360    -1.0920    -7.5860	H	1	fragment1	0.0000
764	H386     3.8720    -1.6990    -7.0730	H	1	fragment1	0.0000
765	H387     3.0480    -2.6960    -8.2660	H	1	fragment1	0.0000
766	H388     4.3060    -0.3400    -9.4760	H	1	fragment1	0.0000
767	H389     5.4710    -1.3700    -8.6510	H	1	fragment1	0.0000
768	C241     2.6760     2.0680    -4.3790	C.2	1	fragment1	0.0000
769	C242     2.2520     2.3650    -5.8230	C.3	1	fragment1	0.0000
770	N69     1.9060     1.0930    -6.5340	N.3	1	fragment1	0.0000
771	O68     2.7110     0.9260    -3.9640	O.2	1	fragment1	0.0000
772	C243     1.0270     3.2830    -5.8110	C.3	1	fragment1	0.0000
773	C244     0.9110     3.9960    -7.1650	C.3	1	fragment1	0.0000
774	C245     0.7060     2.9630    -8.2760	C.3	1	fragment1	0.0000
775	C246    -0.2910     4.9420    -7.1330	C.3	1	fragment1	0.0000
776	H390     1.0730     0.6200    -6.3220	H	1	fragment1	0.0000
777	H391     3.0580     2.8580    -6.3370	H	1	fragment1	0.0000
778	H392     0.1370     2.6980    -5.6300	H	1	fragment1	0.0000
779	H393     1.1330     4.0150    -5.0250	H	1	fragment1	0.0000
780	H394     1.8110     4.5610    -7.3560	H	1	fragment1	0.0000
781	H395     0.1870     2.1000    -7.8850	H	1	fragment1	0.0000
782	H396     0.1200     3.3970    -9.0730	H	1	fragment1	0.0000
783	H397     1.6630     2.6540    -8.6680	H	1	fragment1	0.0000
784	H398    -0.2620     5.5390    -6.2330	H	1	fragment1	0.0000
785	H399    -0.2640     5.5950    -7.9930	H	1	fragment1	0.0000
786	H400    -1.2060     4.3690    -7.1500	H	1	fragment1	0.0000
787	C247     2.6900     3.9320    -1.3260	C.2	1	fragment1	0.0000
788	C248     3.4130     2.9200    -2.2240	C.3	1	fragment1	0.0000
789	N70     2.9910     3.1090    -3.6490	N.3	1	fragment1	0.0000
790	O69     2.8340     5.1270    -1.4940	O.2	1	fragment1	0.0000
791	C249     4.9230     3.1320    -2.1110	C.3	1	fragment1	0.0000
792	S4     5.9820     2.2830    -3.3110	S.3	1	fragment1	0.0000
793	H401     2.9520     4.0090    -4.0340	H	1	fragment1	0.0000
794	H402     3.1680     1.9220    -1.9050	H	1	fragment1	0.0000
795	H403     5.1200     4.1910    -2.1940	H	1	fragment1	0.0000
796	H404     5.2310     2.8190    -1.1250	H	1	fragment1	0.0000
797	C250     1.9460     4.5080     1.8490	C.2	1	fragment1	0.0000
798	C251     1.1880     4.3470     0.5270	C.3	1	fragment1	0.0000
799	N71     1.9300     3.4290    -0.3900	N.3	1	fragment1	0.0000
800	O70     2.8700     3.7680     2.1280	O.2	1	fragment1	0.0000
801	C252    -0.1960     3.7620     0.8040	C.3	1	fragment1	0.0000
802	C253    -0.8160     3.2920    -0.5130	C.3	1	fragment1	0.0000
803	C254    -2.2470     2.8160    -0.2540	C.3	1	fragment1	0.0000
804	C255    -0.8450     4.4600    -1.5010	C.3	1	fragment1	0.0000
805	H405     1.8470     2.4570    -0.2900	H	1	fragment1	0.0000
806	H406     1.0780     5.3090     0.0580	H	1	fragment1	0.0000
807	H407    -0.1080     2.9250     1.4830	H	1	fragment1	0.0000
808	H408    -0.8250     4.5170     1.2530	H	1	fragment1	0.0000
809	H409    -0.2310     2.4820    -0.9230	H	1	fragment1	0.0000
810	H410    -2.2800     2.2410     0.6600	H	1	fragment1	0.0000
811	H411    -2.9040     3.6690    -0.1610	H	1	fragment1	0.0000
812	H412    -2.5800     2.1990    -1.0750	H	1	fragment1	0.0000
813	H413    -1.0780     5.3750    -0.9770	H	1	fragment1	0.0000
814	H414     0.1190     4.5590    -1.9770	H	1	fragment1	0.0000
815	H415    -1.5970     4.2810    -2.2550	H	1	fragment1	0.0000
816	C256     1.1540     5.6370     5.0970	C.2	1	fragment1	0.0000
817	C257     2.2050     5.7160     3.9480	C.3	1	fragment1	0.0000
818	N72     1.5320     5.4770     2.6310	N.3	1	fragment1	0.0000
819	O71     0.2040     6.3950     5.0930	O.2	1	fragment1	0.0000
820	C258     2.8110     7.1200     3.9370	C.3	1	fragment1	0.0000
821	C259     3.9300     7.1970     4.9780	C.2	1	fragment1	0.0000
822	O72     3.6430     6.8380     6.1080	O.2	1	fragment1	0.0000
823	O73     5.0080     7.6100     4.5850	O.3	1	fragment1	0.0000
824	H416     0.7830     6.0440     2.3540	H	1	fragment1	0.0000
825	H417     2.9820     5.0030     4.0800	H	1	fragment1	0.0000
826	H418     3.2170     7.3350     2.9620	H	1	fragment1	0.0000
827	H419     2.0510     7.8480     4.1750	H	1	fragment1	0.0000
828	C260     0.3240     5.9280     7.9720	C.2	1	fragment1	0.0000
829	C261     0.3640     4.6220     7.1720	C.3	1	fragment1	0.0000
830	N73     1.3290     4.7280     6.0680	N.3	1	fragment1	0.0000
831	O74    -0.5210     6.1150     8.8250	O.2	1	fragment1	0.0000
832	C262     0.8730     3.4750     8.0530	C.3	1	fragment1	0.0000
833	C263     2.2050     2.9630     7.4300	C.3	1	fragment1	0.0000
834	C264     2.4560     3.7740     6.1460	C.3	1	fragment1	0.0000
835	H420    -0.6120     4.3840     6.7940	H	1	fragment1	0.0000
836	H421     1.0480     3.8310     9.0580	H	1	fragment1	0.0000
837	H422     0.1460     2.6770     8.0750	H	1	fragment1	0.0000
838	H423     3.0180     3.1140     8.1250	H	1	fragment1	0.0000
839	H424     2.1230     1.9130     7.1940	H	1	fragment1	0.0000
840	H425     3.3940     4.3050     6.2180	H	1	fragment1	0.0000
841	H426     2.4560     3.1210     5.2850	H	1	fragment1	0.0000
842	C265     0.0540     8.9440     8.0860	C.2	1	fragment1	0.0000
843	C266     1.2930     8.0970     8.4000	C.3	1	fragment1	0.0000
844	N74     1.2450     6.8030     7.6740	N.3	1	fragment1	0.0000
845	O75    -0.2200     9.9100     8.7700	O.2	1	fragment1	0.0000
846	C267     2.5480     8.8590     7.9770	C.3	1	fragment1	0.0000
847	C268     2.5840    10.2080     8.6970	C.3	1	fragment1	0.0000
848	C269     4.0300    10.5370     9.0740	C.3	1	fragment1	0.0000
849	C270     4.0810    11.9310     9.7010	C.3	1	fragment1	0.0000
850	N75     5.4140    12.1770    10.3190	N.3	1	fragment1	0.0000
851	H427     1.9030     6.6070     6.9840	H	1	fragment1	0.0000
852	H428     1.3370     7.9060     9.4520	H	1	fragment1	0.0000
853	H429     3.4250     8.2850     8.2370	H	1	fragment1	0.0000
854	H430     2.5330     9.0170     6.9090	H	1	fragment1	0.0000
855	H431     2.1950    10.9780     8.0460	H	1	fragment1	0.0000
856	H432     1.9780    10.1600     9.5890	H	1	fragment1	0.0000
857	H433     4.3950     9.8070     9.7810	H	1	fragment1	0.0000
858	H434     4.6500    10.5140     8.1890	H	1	fragment1	0.0000
859	H435     3.9020    12.6770     8.9410	H	1	fragment1	0.0000
860	H436     3.3190    12.0140    10.4620	H	1	fragment1	0.0000
861	H437     5.7210    11.3250    10.8310	H	1	fragment1	0.0000
862	H438     6.1050    12.4010     9.5750	H	1	fragment1	0.0000
863	H439     5.3480    12.9750    10.9820	H	1	fragment1	0.0000
864	C271    -3.1550     8.6090     7.1540	C.2	1	fragment1	0.0000
865	C272    -1.8920     9.3470     6.6940	C.3	1	fragment1	0.0000
866	N76    -0.6710     8.5620     7.0610	N.3	1	fragment1	0.0000
867	O76    -3.3030     7.4250     6.9340	O.2	1	fragment1	0.0000
868	C273    -1.9250     9.5470     5.1810	C.3	1	fragment1	0.0000
869	C274    -0.5410     9.9940     4.7060	C.3	1	fragment1	0.0000
870	C275    -0.6920    10.8850     3.4710	C.2	1	fragment1	0.0000
871	O77    -1.0410    12.0360     3.6730	O.2	1	fragment1	0.0000
872	O78    -0.4500    10.3630     2.3950	O.3	1	fragment1	0.0000
873	H440    -0.4210     7.7640     6.5420	H	1	fragment1	0.0000
874	H441    -1.8540    10.3110     7.1730	H	1	fragment1	0.0000
875	H442    -2.1940     8.6240     4.6950	H	1	fragment1	0.0000
876	H443    -2.6520    10.3020     4.9350	H	1	fragment1	0.0000
877	H444    -0.0470    10.5510     5.4890	H	1	fragment1	0.0000
878	H445     0.0560     9.1310     4.4520	H	1	fragment1	0.0000
879	C276    -6.1440     8.1430     7.1320	C.2	1	fragment1	0.0000
880	C277    -5.2920     8.6960     8.2840	C.3	1	fragment1	0.0000
881	N77    -4.0400     9.3330     7.7790	N.3	1	fragment1	0.0000
882	O79    -6.7090     7.0730     7.2440	O.2	1	fragment1	0.0000
883	C278    -6.1000     9.7380     9.0560	C.3	1	fragment1	0.0000
884	C279    -7.2820     9.0530     9.7460	C.2	1	fragment1	0.0000
885	O80    -7.1170     8.1070    10.4890	O.2	1	fragment1	0.0000
886	N78    -8.4880     9.5000     9.5270	N.3	1	fragment1	0.0000
887	H446    -3.8830    10.2900     7.9180	H	1	fragment1	0.0000
888	H447    -5.0350     7.8890     8.9500	H	1	fragment1	0.0000
889	H448    -5.4750    10.2070     9.8010	H	1	fragment1	0.0000
890	H449    -6.4710    10.4900     8.3760	H	1	fragment1	0.0000
891	H450    -8.6270    10.2630     8.9280	H	1	fragment1	0.0000
892	H451    -9.2560     9.0720     9.9620	H	1	fragment1	0.0000
893	C280    -6.5090     7.0560     4.3720	C.2	1	fragment1	0.0000
894	C281    -7.0610     8.3760     4.9150	C.3	1	fragment1	0.0000
895	N79    -6.2250     8.8730     6.0500	N.3	1	fragment1	0.0000
896	O81    -7.2380     6.2670     3.8140	O.2	1	fragment1	0.0000
897	C282    -7.1180     9.4260     3.7960	C.3	1	fragment1	0.0000
898	C283    -5.7100     9.7530     3.2810	C.2	1	fragment1	0.0000
899	C284    -4.9850    10.7860     3.6990	C.2	1	fragment1	0.0000
900	C285    -5.0800     9.0980     2.3180	C.2	1	fragment1	0.0000
901	C286    -3.8620     9.6950     2.0370	C.2	1	fragment1	0.0000
902	C287    -5.4650     7.9710     1.6110	C.2	1	fragment1	0.0000
903	C288    -3.0390     9.1730     1.0600	C.2	1	fragment1	0.0000
904	C289    -4.6380     7.4490     0.6350	C.2	1	fragment1	0.0000
905	C290    -3.4260     8.0500     0.3600	C.2	1	fragment1	0.0000
906	N80    -3.8810    10.7310     2.9380	N.3	1	fragment1	0.0000
907	H452    -5.7480     9.7260     5.9840	H	1	fragment1	0.0000
908	H453    -8.0620     8.2040     5.2770	H	1	fragment1	0.0000
909	H454    -7.7160     9.0510     2.9780	H	1	fragment1	0.0000
910	H455    -7.5720    10.3300     4.1740	H	1	fragment1	0.0000
911	H456    -5.2290    11.5030     4.4680	H	1	fragment1	0.0000
912	H457    -3.1440    11.3700     3.0250	H	1	fragment1	0.0000
913	H458    -6.4140     7.5020     1.8170	H	1	fragment1	0.0000
914	H459    -2.0910     9.6440     0.8430	H	1	fragment1	0.0000
915	H460    -4.9400     6.5700     0.0850	H	1	fragment1	0.0000
916	H461    -2.7820     7.6420    -0.4050	H	1	fragment1	0.0000
917	C291    -5.1750     4.3960     4.8830	C.2	1	fragment1	0.0000
918	C292    -4.6550     5.5560     4.0430	C.3	1	fragment1	0.0000
919	N81    -5.2390     6.8330     4.5510	N.3	1	fragment1	0.0000
920	O82    -5.4350     3.3220     4.3780	O.2	1	fragment1	0.0000
921	C293    -3.1230     5.6230     4.1390	C.3	1	fragment1	0.0000
922	C294    -2.5490     4.2100     4.2720	C.3	1	fragment1	0.0000
923	C295    -2.5630     6.2750     2.8770	C.3	1	fragment1	0.0000
924	H462    -4.6790     7.4860     5.0210	H	1	fragment1	0.0000
925	H463    -4.9530     5.4100     3.0150	H	1	fragment1	0.0000
926	H464    -2.8400     6.2060     4.9990	H	1	fragment1	0.0000
927	H465    -3.0710     3.5400     3.6070	H	1	fragment1	0.0000
928	H466    -1.4990     4.2200     4.0150	H	1	fragment1	0.0000
929	H467    -2.6600     3.8650     5.2890	H	1	fragment1	0.0000
930	H468    -2.8730     5.7160     2.0060	H	1	fragment1	0.0000
931	H469    -2.9300     7.2820     2.8030	H	1	fragment1	0.0000
932	H470    -1.4850     6.2920     2.9230	H	1	fragment1	0.0000
933	C296    -7.2980     3.2940     6.7260	C.2	1	fragment1	0.0000
934	C297    -5.8290     3.5740     7.0450	C.3	1	fragment1	0.0000
935	N82    -5.3170     4.6400     6.1500	N.3	1	fragment1	0.0000
936	O83    -7.8160     2.2510     7.0510	O.2	1	fragment1	0.0000
937	C298    -5.7050     4.0430     8.4950	C.3	1	fragment1	0.0000
938	C299    -5.7430     2.8270     9.4250	C.3	1	fragment1	0.0000
939	C300    -4.3220     2.2920     9.6150	C.2	1	fragment1	0.0000
940	O84    -4.0250     1.1600     9.2880	O.2	1	fragment1	0.0000
941	N83    -3.4170     3.0700    10.1410	N.3	1	fragment1	0.0000
942	H471    -5.0870     5.5220     6.5120	H	1	fragment1	0.0000
943	H472    -5.2510     2.6760     6.9070	H	1	fragment1	0.0000
944	H473    -4.7740     4.5740     8.6280	H	1	fragment1	0.0000
945	H474    -6.5250     4.7040     8.7320	H	1	fragment1	0.0000
946	H475    -6.1480     3.1130    10.3850	H	1	fragment1	0.0000
947	H476    -6.3610     2.0540     8.9930	H	1	fragment1	0.0000
948	H477    -3.6510     3.9840    10.4070	H	1	fragment1	0.0000
949	H478    -2.5020     2.7420    10.2690	H	1	fragment1	0.0000
950	C301    -9.5540     3.3350     4.4020	C.2	1	fragment1	0.0000
951	C302    -9.3770     4.0460     5.7510	C.3	1	fragment1	0.0000
952	N84    -7.9350     4.2330     6.0810	N.3	1	fragment1	0.0000
953	O85   -10.1670     2.2890     4.3330	O.2	1	fragment1	0.0000
954	C303   -10.0540     5.4140     5.6990	C.3	1	fragment1	0.0000
955	C304   -11.5600     5.2360     5.8960	C.3	1	fragment1	0.0000
956	C305   -12.2910     6.4290     5.2770	C.3	1	fragment1	0.0000
957	C306   -14.1860     6.5530     6.7680	C.2	1	fragment1	0.0000
958	N85   -13.7480     6.3070     5.5640	N.3	1	fragment1	0.0000
959	N86   -14.1570     7.7800     7.2110	N.3	1	fragment1	0.0000
960	N87   -14.6410     5.5640     7.4890	N.2	1	fragment1	0.0000
961	H479    -7.4710     5.0540     5.8180	H	1	fragment1	0.0000
962	H480    -9.8380     3.4550     6.5230	H	1	fragment1	0.0000
963	H481    -9.6570     6.0450     6.4810	H	1	fragment1	0.0000
964	H482    -9.8650     5.8760     4.7410	H	1	fragment1	0.0000
965	H483   -11.8840     4.3240     5.4170	H	1	fragment1	0.0000
966	H484   -11.7840     5.1810     6.9520	H	1	fragment1	0.0000
967	H485   -11.9180     7.3500     5.7030	H	1	fragment1	0.0000
968	H486   -12.1360     6.4410     4.2090	H	1	fragment1	0.0000
969	H487   -14.3700     6.0430     4.8550	H	1	fragment1	0.0000
970	H488   -13.8010     8.5130     6.6310	H	1	fragment1	0.0000
971	H489   -14.4880     7.9880     8.1320	H	1	fragment1	0.0000
972	H490   -14.6490     4.6360     7.1160	H	1	fragment1	0.0000
973	H491   -14.9810     5.7350     8.4140	H	1	fragment1	0.0000
974	C307    -8.6150     1.8380     2.0670	C.2	1	fragment1	0.0000
975	C308    -9.1780     3.2630     2.0240	C.3	1	fragment1	0.0000
976	N88    -9.0170     3.9080     3.3540	N.3	1	fragment1	0.0000
977	O86    -9.0780     0.9600     1.3650	O.2	1	fragment1	0.0000
978	C309    -8.4420     4.0980     0.9740	C.3	1	fragment1	0.0000
979	C310    -8.9100     5.5530     1.0710	C.3	1	fragment1	0.0000
980	C311    -6.9340     4.0240     1.2400	C.3	1	fragment1	0.0000
981	H492    -8.5020     4.7380     3.4410	H	1	fragment1	0.0000
982	H493   -10.2250     3.2200     1.7760	H	1	fragment1	0.0000
983	H494    -8.6590     3.7220    -0.0080	H	1	fragment1	0.0000
984	H495    -8.7370     5.9270     2.0650	H	1	fragment1	0.0000
985	H496    -8.3660     6.1610     0.3620	H	1	fragment1	0.0000
986	H497    -9.9650     5.6110     0.8490	H	1	fragment1	0.0000
987	H498    -6.7570     3.9090     2.2990	H	1	fragment1	0.0000
988	H499    -6.5130     3.1790     0.7150	H	1	fragment1	0.0000
989	H500    -6.4560     4.9290     0.8960	H	1	fragment1	0.0000
990	C312    -7.9830    -0.6240     3.8270	C.2	1	fragment1	0.0000
991	C313    -7.0480     0.2690     3.0070	C.3	1	fragment1	0.0000
992	N89    -7.6330     1.6340     2.8990	N.3	1	fragment1	0.0000
993	O87    -8.2730    -1.7390     3.4410	O.2	1	fragment1	0.0000
994	C314    -5.6840     0.3530     3.6900	C.3	1	fragment1	0.0000
995	C315    -5.2230    -1.0560     4.0660	C.3	1	fragment1	0.0000
996	C316    -4.6740     0.9700     2.7200	C.3	1	fragment1	0.0000
997	H501    -7.2840     2.3690     3.4460	H	1	fragment1	0.0000
998	H502    -6.9310    -0.1500     2.0190	H	1	fragment1	0.0000
999	H503    -5.7570     0.9630     4.5780	H	1	fragment1	0.0000
1000	H504    -5.4810    -1.7470     3.2770	H	1	fragment1	0.0000
1001	H505    -4.1530    -1.0630     4.2090	H	1	fragment1	0.0000
1002	H506    -5.7060    -1.3650     4.9810	H	1	fragment1	0.0000
1003	H507    -5.0790     1.8790     2.3010	H	1	fragment1	0.0000
1004	H508    -3.7580     1.1970     3.2440	H	1	fragment1	0.0000
1005	H509    -4.4630     0.2730     1.9220	H	1	fragment1	0.0000
1006	C317   -10.5660    -1.3560     4.9350	C.2	1	fragment1	0.0000
1007	C318    -9.3690    -0.9300     5.7800	C.3	1	fragment1	0.0000
1008	N90    -8.4390    -0.1170     4.9450	N.3	1	fragment1	0.0000
1009	O88   -11.0900    -2.4410     5.0960	O.2	1	fragment1	0.0000
1010	C319    -9.8560    -0.0970     6.9660	C.3	1	fragment1	0.0000
1011	C320   -10.6470    -0.9940     7.9230	C.3	1	fragment1	0.0000
1012	C321    -9.8300    -1.2150     9.1980	C.2	1	fragment1	0.0000
1013	O89    -8.7790    -1.8220     9.0690	O.2	1	fragment1	0.0000
1014	O90   -10.3020    -0.7630    10.2280	O.3	1	fragment1	0.0000
1015	H510    -8.1720     0.7850     5.2310	H	1	fragment1	0.0000
1016	H511    -8.8560    -1.8050     6.1420	H	1	fragment1	0.0000
1017	H512    -9.0130     0.3240     7.4840	H	1	fragment1	0.0000
1018	H513   -10.4890     0.7030     6.6120	H	1	fragment1	0.0000
1019	H514   -11.5840    -0.5220     8.1770	H	1	fragment1	0.0000
1020	H515   -10.8420    -1.9480     7.4560	H	1	fragment1	0.0000
1021	C322   -11.7680    -2.0160     2.2800	C.2	1	fragment1	0.0000
1022	C323   -12.1330    -0.8350     3.1820	C.3	1	fragment1	0.0000
1023	N91   -10.9760    -0.4900     4.0470	N.3	1	fragment1	0.0000
1024	O91   -12.5350    -2.9460     2.1320	O.2	1	fragment1	0.0000
1025	C324   -12.4990     0.3740     2.3280	C.3	1	fragment1	0.0000
1026	C325   -13.6980     1.0870     2.9570	C.3	1	fragment1	0.0000
1027	C326   -13.8770     2.4520     2.2880	C.3	1	fragment1	0.0000
1028	C327   -15.1440     3.1150     2.8340	C.3	1	fragment1	0.0000
1029	N92   -15.0860     3.2060     4.3200	N.3	1	fragment1	0.0000
1030	H516   -10.5240     0.3780     3.9500	H	1	fragment1	0.0000
1031	H517   -12.9740    -1.1040     3.8000	H	1	fragment1	0.0000
1032	H518   -11.6590     1.0510     2.2800	H	1	fragment1	0.0000
1033	H519   -12.7510     0.0500     1.3320	H	1	fragment1	0.0000
1034	H520   -14.5880     0.4930     2.8140	H	1	fragment1	0.0000
1035	H521   -13.5270     1.2210     4.0150	H	1	fragment1	0.0000
1036	H522   -13.0210     3.0750     2.5000	H	1	fragment1	0.0000
1037	H523   -13.9660     2.3230     1.2190	H	1	fragment1	0.0000
1038	H524   -15.2370     4.1090     2.4230	H	1	fragment1	0.0000
1039	H525   -16.0080     2.5330     2.5490	H	1	fragment1	0.0000
1040	H526   -14.0950     3.2880     4.6250	H	1	fragment1	0.0000
1041	H527   -15.6170     4.0420     4.6370	H	1	fragment1	0.0000
1042	H528   -15.5070     2.3510     4.7360	H	1	fragment1	0.0000
1043	C328   -10.2940    -4.4090     1.5600	C.2	1	fragment1	0.0000
1044	C329   -10.1760    -3.0810     0.8090	C.3	1	fragment1	0.0000
1045	N93   -10.5990    -1.9560     1.6930	N.3	1	fragment1	0.0000
1046	O92   -10.7800    -5.3850     1.0270	O.2	1	fragment1	0.0000
1047	C330    -8.7340    -2.8790     0.3790	C.3	1	fragment1	0.0000
1048	C331    -8.2770    -4.1060    -0.4230	C.2	1	fragment1	0.0000
1049	C332    -8.8200    -4.3760    -1.6700	C.2	1	fragment1	0.0000
1050	C333    -7.3170    -4.9620     0.0900	C.2	1	fragment1	0.0000
1051	C334    -8.4100    -5.4840    -2.3870	C.2	1	fragment1	0.0000
1052	C335    -6.9090    -6.0680    -0.6300	C.2	1	fragment1	0.0000
1053	C336    -7.4570    -6.3290    -1.8670	C.2	1	fragment1	0.0000
1054	H529   -10.0110    -1.1790     1.8280	H	1	fragment1	0.0000
1055	H530   -10.7970    -3.1060    -0.0550	H	1	fragment1	0.0000
1056	H531    -8.6480    -1.9930    -0.2330	H	1	fragment1	0.0000
1057	H532    -8.1180    -2.7730     1.2440	H	1	fragment1	0.0000
1058	H533    -9.5660    -3.7160    -2.0860	H	1	fragment1	0.0000
1059	H534    -6.8830    -4.7640     1.0590	H	1	fragment1	0.0000
1060	H535    -8.8380    -5.6870    -3.3570	H	1	fragment1	0.0000
1061	H536    -6.1580    -6.7280    -0.2240	H	1	fragment1	0.0000
1062	H537    -7.1430    -7.2020    -2.4270	H	1	fragment1	0.0000
1063	C337   -11.3840    -6.0640     3.8080	C.2	1	fragment1	0.0000
1064	C338    -9.9200    -5.6700     3.5880	C.3	1	fragment1	0.0000
1065	N94    -9.8430    -4.4150     2.7850	N.3	1	fragment1	0.0000
1066	O93   -11.7510    -7.2120     3.6510	O.2	1	fragment1	0.0000
1067	C339    -9.2460    -5.4420     4.9400	C.3	1	fragment1	0.0000
1068	C340    -7.7470    -5.7200     4.8070	C.3	1	fragment1	0.0000
1069	C341    -6.9870    -4.8880     5.8420	C.3	1	fragment1	0.0000
1070	C342    -7.4860    -7.2060     5.0670	C.3	1	fragment1	0.0000
1071	H538    -9.4570    -3.6020     3.1750	H	1	fragment1	0.0000
1072	H539    -9.4110    -6.4620     3.0650	H	1	fragment1	0.0000
1073	H540    -9.3980    -4.4190     5.2540	H	1	fragment1	0.0000
1074	H541    -9.6740    -6.1060     5.6760	H	1	fragment1	0.0000
1075	H542    -7.4140    -5.4600     3.8140	H	1	fragment1	0.0000
1076	H543    -7.4590    -4.9880     6.8080	H	1	fragment1	0.0000
1077	H544    -5.9660    -5.2330     5.9080	H	1	fragment1	0.0000
1078	H545    -6.9930    -3.8480     5.5490	H	1	fragment1	0.0000
1079	H546    -8.3240    -7.7900     4.7170	H	1	fragment1	0.0000
1080	H547    -6.5940    -7.5160     4.5430	H	1	fragment1	0.0000
1081	H548    -7.3530    -7.3730     6.1250	H	1	fragment1	0.0000
1082	C343   -14.2600    -5.9790     3.1270	C.2	1	fragment1	0.0000
1083	C344   -13.6300    -5.4020     4.3990	C.3	1	fragment1	0.0000
1084	N95   -12.1880    -5.1020     4.1660	N.3	1	fragment1	0.0000
1085	O94   -15.1600    -6.7930     3.1920	O.2	1	fragment1	0.0000
1086	C345   -14.3530    -4.1130     4.7870	C.3	1	fragment1	0.0000
1087	C346   -13.8770    -3.6690     6.1720	C.3	1	fragment1	0.0000
1088	C347   -14.9580    -3.9990     7.2030	C.3	1	fragment1	0.0000
1089	C348   -14.4660    -3.5900     8.5930	C.3	1	fragment1	0.0000
1090	N96   -14.4990    -4.7560     9.5210	N.3	1	fragment1	0.0000
1091	H549   -11.8480    -4.1900     4.2810	H	1	fragment1	0.0000
1092	H550   -13.7220    -6.1160     5.1990	H	1	fragment1	0.0000
1093	H551   -14.1330    -3.3420     4.0630	H	1	fragment1	0.0000
1094	H552   -15.4180    -4.2860     4.8080	H	1	fragment1	0.0000
1095	H553   -12.9640    -4.1880     6.4250	H	1	fragment1	0.0000
1096	H554   -13.6910    -2.6060     6.1680	H	1	fragment1	0.0000
1097	H555   -15.8630    -3.4600     6.9650	H	1	fragment1	0.0000
1098	H556   -15.1620    -5.0590     7.1880	H	1	fragment1	0.0000
1099	H557   -13.4530    -3.2230     8.5250	H	1	fragment1	0.0000
1100	H558   -15.0990    -2.8090     8.9850	H	1	fragment1	0.0000
1101	H559   -15.2830    -5.3870     9.2570	H	1	fragment1	0.0000
1102	H560   -13.6000    -5.2740     9.4590	H	1	fragment1	0.0000
1103	H561   -14.6390    -4.4190    10.4950	H	1	fragment1	0.0000
1104	C349   -13.7240    -7.4260     0.3830	C.2	1	fragment1	0.0000
1105	C350   -14.3310    -6.0590     0.7130	C.3	1	fragment1	0.0000
1106	N97   -13.7730    -5.5440     1.9970	N.3	1	fragment1	0.0000
1107	O95   -14.4160    -8.3310    -0.0400	O.2	1	fragment1	0.0000
1108	C351   -14.0030    -5.0720    -0.4060	C.3	1	fragment1	0.0000
1109	C352   -15.1160    -5.1160    -1.4550	C.3	1	fragment1	0.0000
1110	C353   -16.2510    -4.1850    -1.0230	C.3	1	fragment1	0.0000
1111	C354   -18.4840    -5.0240    -0.6440	C.2	1	fragment1	0.0000
1112	N98   -17.5460    -4.7430    -1.5060	N.3	1	fragment1	0.0000
1113	N99   -18.8200    -4.1240     0.2390	N.3	1	fragment1	0.0000
1114	N100   -19.0560    -6.1960    -0.6930	N.2	1	fragment1	0.0000
1115	H562   -13.0470    -4.8850     1.9910	H	1	fragment1	0.0000
1116	H563   -15.3990    -6.1540     0.8020	H	1	fragment1	0.0000
1117	H564   -13.9270    -4.0740     0.0010	H	1	fragment1	0.0000
1118	H565   -13.0630    -5.3410    -0.8630	H	1	fragment1	0.0000
1119	H566   -14.7270    -4.7950    -2.4100	H	1	fragment1	0.0000
1120	H567   -15.4890    -6.1250    -1.5460	H	1	fragment1	0.0000
1121	H568   -16.2740    -4.1080     0.0540	H	1	fragment1	0.0000
1122	H569   -16.1030    -3.2030    -1.4490	H	1	fragment1	0.0000
1123	H570   -17.6910    -4.8980    -2.4630	H	1	fragment1	0.0000
1124	H571   -18.3600    -3.2360     0.2480	H	1	fragment1	0.0000
1125	H572   -19.5370    -4.3220     0.9080	H	1	fragment1	0.0000
1126	H573   -18.7730    -6.8620    -1.3840	H	1	fragment1	0.0000
1127	H574   -19.7770    -6.4290    -0.0410	H	1	fragment1	0.0000
1128	C355   -12.2490    -9.9210     1.2710	C.2	1	fragment1	0.0000
1129	C356   -11.7700    -8.8470     0.2880	C.3	1	fragment1	0.0000
1130	N101   -12.4400    -7.5470     0.5840	N.3	1	fragment1	0.0000
1131	O96   -12.2230   -11.0980     0.9710	O.2	1	fragment1	0.0000
1132	C357   -10.2570    -8.6710     0.4190	C.3	1	fragment1	0.0000
1133	H575   -11.9210    -6.7910     0.9280	H	1	fragment1	0.0000
1134	H576   -12.0080    -9.1510    -0.7170	H	1	fragment1	0.0000
1135	H577   -10.0400    -7.9070     1.1510	H	1	fragment1	0.0000
1136	H578    -9.8070    -9.6010     0.7330	H	1	fragment1	0.0000
1137	H579    -9.8400    -8.3790    -0.5340	H	1	fragment1	0.0000
1138	C358   -14.6270   -10.8280     3.1720	C.2	1	fragment1	0.0000
1139	C359   -13.1620   -10.4690     3.4420	C.3	1	fragment1	0.0000
1140	N102   -12.6770    -9.4890     2.4270	N.3	1	fragment1	0.0000
1141	O97   -15.0210   -11.9710     3.2910	O.2	1	fragment1	0.0000
1142	C360   -13.0370    -9.8500     4.8330	C.3	1	fragment1	0.0000
1143	C361   -13.2300   -10.9410     5.8880	C.3	1	fragment1	0.0000
1144	C362   -13.4890   -10.2910     7.2480	C.2	1	fragment1	0.0000
1145	O98   -14.4200    -9.5040     7.3040	O.2	1	fragment1	0.0000
1146	O99   -12.7410   -10.6170     8.1550	O.3	1	fragment1	0.0000
1147	H580   -12.6780    -8.5320     2.6260	H	1	fragment1	0.0000
1148	H581   -12.5610   -11.3590     3.3940	H	1	fragment1	0.0000
1149	H582   -12.0600    -9.4050     4.9460	H	1	fragment1	0.0000
1150	H583   -13.7900    -9.0860     4.9590	H	1	fragment1	0.0000
1151	H584   -14.0740   -11.5610     5.6230	H	1	fragment1	0.0000
1152	H585   -12.3430   -11.5530     5.9480	H	1	fragment1	0.0000
1153	C363   -16.9840   -11.0040     1.2960	C.2	1	fragment1	0.0000
1154	C364   -16.8430   -10.1070     2.5300	C.3	1	fragment1	0.0000
1155	N103   -15.4020    -9.8410     2.8120	N.3	1	fragment1	0.0000
1156	O100   -17.9210   -11.7690     1.1840	O.2	1	fragment1	0.0000
1157	C365   -17.5570    -8.7790     2.2780	C.3	1	fragment1	0.0000
1158	C366   -18.9100    -9.0500     1.6190	C.2	1	fragment1	0.0000
1159	O101   -19.0140    -9.1660     0.4140	O.2	1	fragment1	0.0000
1160	N104   -19.9720    -9.1570     2.3710	N.3	1	fragment1	0.0000
1161	H586   -15.0410    -8.9340     2.7280	H	1	fragment1	0.0000
1162	H587   -17.2890   -10.5950     3.3790	H	1	fragment1	0.0000
1163	H588   -17.7120    -8.2640     3.2150	H	1	fragment1	0.0000
1164	H589   -16.9590    -8.1600     1.6260	H	1	fragment1	0.0000
1165	H590   -19.8940    -9.0640     3.3430	H	1	fragment1	0.0000
1166	H591   -20.8460    -9.3300     1.9630	H	1	fragment1	0.0000
1167	C367   -16.0050   -13.2150    -0.4710	C.2	1	fragment1	0.0000
1168	C368   -16.1080   -11.7310    -0.8370	C.3	1	fragment1	0.0000
1169	N105   -16.0460   -10.8910     0.3960	N.3	1	fragment1	0.0000
1170	O102   -15.3490   -13.4840     0.5220	O.2	1	fragment1	0.0000
1171	C369   -14.9510   -11.3520    -1.7590	C.3	1	fragment1	0.0000
1172	O103   -15.3870   -10.1550    -2.3880	O.3	1	fragment1	0.0000
1173	H592   -15.3070   -10.2610     0.5270	H	1	fragment1	0.0000
1174	H593   -17.0410   -11.5520    -1.3440	H	1	fragment1	0.0000
1175	H594   -14.0520   -11.1690    -1.1910	H	1	fragment1	0.0000
1176	H595   -14.7820   -12.1210    -2.4980	H	1	fragment1	0.0000
1177	H596   -16.0460   -10.3880    -3.0460	H	1	fragment1	0.0000
1178	C370   -13.6160   -24.1120   -19.4260	C.2	2	fragment2	0.0000
1179	C371   -12.2850   -24.7090   -19.8920	C.3	2	fragment2	0.0000
1180	N106   -11.1570   -23.9340   -19.2990	N.3	2	fragment2	0.0000
1181	O104   -14.4500   -23.7460   -20.2300	O.2	2	fragment2	0.0000
1182	C372   -12.2150   -26.1750   -19.4640	C.3	2	fragment2	0.0000
1183	H597   -12.2290   -24.6500   -20.9670	H	2	fragment2	0.0000
1184	H598   -11.1980   -26.5290   -19.5420	H	2	fragment2	0.0000
1185	H599   -12.5490   -26.2730   -18.4420	H	2	fragment2	0.0000
1186	H600   -12.8490   -26.7720   -20.1030	H	2	fragment2	0.0000
1187	C373   -14.8490   -22.9520   -16.1670	C.2	2	fragment2	0.0000
1188	C374   -15.0560   -23.4540   -17.6010	C.3	2	fragment2	0.0000
1189	N107   -13.7850   -24.0260   -18.1350	N.3	2	fragment2	0.0000
1190	O105   -15.6270   -22.1650   -15.6650	O.2	2	fragment2	0.0000
1191	C375   -16.1340   -24.5380   -17.6120	C.3	2	fragment2	0.0000
1192	C376   -17.4490   -23.9340   -18.1080	C.3	2	fragment2	0.0000
1193	C377   -18.6010   -24.8830   -17.7670	C.3	2	fragment2	0.0000
1194	C378   -18.3330   -26.2510   -18.4000	C.3	2	fragment2	0.0000
1195	N108   -17.7930   -26.0910   -19.7800	N.3	2	fragment2	0.0000
1196	H601   -13.0850   -24.3330   -17.5230	H	2	fragment2	0.0000
1197	H602   -15.3690   -22.6350   -18.2250	H	2	fragment2	0.0000
1198	H603   -15.8330   -25.3420   -18.2680	H	2	fragment2	0.0000
1199	H604   -16.2670   -24.9280   -16.6130	H	2	fragment2	0.0000
1200	H605   -17.6130   -22.9790   -17.6300	H	2	fragment2	0.0000
1201	H606   -17.4010   -23.7900   -19.1770	H	2	fragment2	0.0000
1202	H607   -18.6780   -24.9890   -16.6950	H	2	fragment2	0.0000
1203	H608   -19.5270   -24.4810   -18.1510	H	2	fragment2	0.0000
1204	H609   -17.6160   -26.7930   -17.8020	H	2	fragment2	0.0000
1205	H610   -19.2530   -26.8150   -18.4450	H	2	fragment2	0.0000
1206	H611   -18.4430   -25.5030   -20.3410	H	2	fragment2	0.0000
1207	H612   -16.8610   -25.6320   -19.7370	H	2	fragment2	0.0000
1208	H613   -17.6990   -27.0260   -20.2260	H	2	fragment2	0.0000
1209	C379   -12.4640   -21.8740   -14.1270	C.2	2	fragment2	0.0000
1210	C380   -13.5240   -22.9830   -14.1400	C.3	2	fragment2	0.0000
1211	N109   -13.8010   -23.4190   -15.5420	N.3	2	fragment2	0.0000
1212	O106   -11.7960   -21.6390   -15.1140	O.2	2	fragment2	0.0000
1213	C381   -13.0160   -24.1810   -13.3380	C.3	2	fragment2	0.0000
1214	C382   -14.0740   -25.2860   -13.3580	C.3	2	fragment2	0.0000
1215	C383   -13.5680   -26.4560   -14.2040	C.2	2	fragment2	0.0000
1216	O107   -12.9280   -27.3120   -13.6150	O.2	2	fragment2	0.0000
1217	O108   -13.8510   -26.4290   -15.3900	O.3	2	fragment2	0.0000
1218	H614   -13.2010   -24.0520   -15.9890	H	2	fragment2	0.0000
1219	H615   -14.4310   -22.6160   -13.6920	H	2	fragment2	0.0000
1220	H616   -12.0990   -24.5480   -13.7760	H	2	fragment2	0.0000
1221	H617   -12.8250   -23.8800   -12.3180	H	2	fragment2	0.0000
1222	H618   -14.2650   -25.6290   -12.3520	H	2	fragment2	0.0000
1223	H619   -14.9910   -24.9070   -13.7850	H	2	fragment2	0.0000
1224	C384    -9.9700   -20.6920   -12.4650	C.2	2	fragment2	0.0000
1225	C385   -11.3230   -20.1220   -12.9070	C.3	2	fragment2	0.0000
1226	N110   -12.3340   -21.2170   -13.0050	N.3	2	fragment2	0.0000
1227	O109    -9.8370   -21.8830   -12.2600	O.2	2	fragment2	0.0000
1228	C386   -11.8020   -19.0900   -11.8860	C.3	2	fragment2	0.0000
1229	C387   -13.2770   -18.7750   -12.1480	C.3	2	fragment2	0.0000
1230	C388   -13.7340   -17.6670   -11.1960	C.3	2	fragment2	0.0000
1231	C389   -13.4420   -18.2960   -13.5920	C.3	2	fragment2	0.0000
1232	H620   -12.8970   -21.4410   -12.2340	H	2	fragment2	0.0000
1233	H621   -11.2140   -19.6480   -13.8680	H	2	fragment2	0.0000
1234	H622   -11.6870   -19.4860   -10.8880	H	2	fragment2	0.0000
1235	H623   -11.2160   -18.1880   -11.9800	H	2	fragment2	0.0000
1236	H624   -13.8730   -19.6610   -11.9880	H	2	fragment2	0.0000
1237	H625   -13.4950   -17.9390   -10.1790	H	2	fragment2	0.0000
1238	H626   -13.2320   -16.7430   -11.4440	H	2	fragment2	0.0000
1239	H627   -14.8010   -17.5270   -11.2850	H	2	fragment2	0.0000
1240	H628   -12.5750   -17.7230   -13.8870	H	2	fragment2	0.0000
1241	H629   -13.5460   -19.1470   -14.2490	H	2	fragment2	0.0000
1242	H630   -14.3220   -17.6750   -13.6720	H	2	fragment2	0.0000
1243	C390    -7.1090   -19.4300   -10.7530	C.2	2	fragment2	0.0000
1244	C391    -7.6350   -20.2960   -11.9030	C.3	2	fragment2	0.0000
1245	N111    -8.9930   -19.8260   -12.3310	N.3	2	fragment2	0.0000
1246	O110    -6.2710   -18.5780   -10.9500	O.2	2	fragment2	0.0000
1247	C392    -6.6790   -20.2040   -13.0920	C.3	2	fragment2	0.0000
1248	C393    -7.1320   -21.1850   -14.1760	C.3	2	fragment2	0.0000
1249	C394    -6.3920   -20.8740   -15.4770	C.3	2	fragment2	0.0000
1250	C395    -4.6750   -22.3150   -16.3800	C.2	2	fragment2	0.0000
1251	N112    -5.9380   -22.1530   -16.0930	N.3	2	fragment2	0.0000
1252	N113    -3.8630   -22.7230   -15.4430	N.3	2	fragment2	0.0000
1253	N114    -4.2660   -22.0630   -17.5930	N.2	2	fragment2	0.0000
1254	H631    -9.1490   -18.8760   -12.5130	H	2	fragment2	0.0000
1255	H632    -7.6970   -21.3130   -11.5780	H	2	fragment2	0.0000
1256	H633    -6.6850   -19.1980   -13.4860	H	2	fragment2	0.0000
1257	H634    -5.6780   -20.4530   -12.7730	H	2	fragment2	0.0000
1258	H635    -6.9130   -22.1960   -13.8660	H	2	fragment2	0.0000
1259	H636    -8.1960   -21.0860   -14.3330	H	2	fragment2	0.0000
1260	H637    -7.0520   -20.3610   -16.1620	H	2	fragment2	0.0000
1261	H638    -5.5350   -20.2510   -15.2720	H	2	fragment2	0.0000
1262	H639    -6.5830   -22.8670   -16.2810	H	2	fragment2	0.0000
1263	H640    -4.2110   -22.9080   -14.5240	H	2	fragment2	0.0000
1264	H641    -2.8920   -22.8520   -15.6450	H	2	fragment2	0.0000
1265	H642    -4.9170   -21.7520   -18.2850	H	2	fragment2	0.0000
1266	H643    -3.3020   -22.1810   -17.8300	H	2	fragment2	0.0000
1267	C396    -5.6100   -18.9690    -8.2440	C.2	2	fragment2	0.0000
1268	C397    -7.1330   -18.8780    -8.4050	C.3	2	fragment2	0.0000
1269	N115    -7.5860   -19.6930    -9.5700	N.3	2	fragment2	0.0000
1270	O111    -5.0130   -19.9830    -8.5440	O.2	2	fragment2	0.0000
1271	C398    -7.8150   -19.4010    -7.1410	C.3	2	fragment2	0.0000
1272	S5    -9.5470   -18.9430    -6.8860	S.3	2	fragment2	0.0000
1273	H644    -8.2340   -20.4180    -9.4470	H	2	fragment2	0.0000
1274	H645    -7.4140   -17.8590    -8.5580	H	2	fragment2	0.0000
1275	H646    -7.7600   -20.4790    -7.1500	H	2	fragment2	0.0000
1276	H647    -7.2550   -19.0510    -6.2860	H	2	fragment2	0.0000
1277	C399    -3.1170   -18.9820    -6.5610	C.2	2	fragment2	0.0000
1278	C400    -3.5220   -17.9190    -7.5870	C.3	2	fragment2	0.0000
1279	N116    -5.0110   -17.9000    -7.7700	N.3	2	fragment2	0.0000
1280	O112    -2.0250   -19.5140    -6.6250	O.2	2	fragment2	0.0000
1281	C401    -3.0440   -16.5480    -7.1030	C.3	2	fragment2	0.0000
1282	C402    -2.9140   -15.6010    -8.2960	C.3	2	fragment2	0.0000
1283	C403    -2.3960   -14.2470    -7.8080	C.2	2	fragment2	0.0000
1284	O113    -3.1130   -13.2660    -7.7840	O.2	2	fragment2	0.0000
1285	N117    -1.1560   -14.1500    -7.4100	N.3	2	fragment2	0.0000
1286	H648    -5.5310   -17.0830    -7.5630	H	2	fragment2	0.0000
1287	H649    -3.0540   -18.1430    -8.5300	H	2	fragment2	0.0000
1288	H650    -3.7550   -16.1450    -6.3970	H	2	fragment2	0.0000
1289	H651    -2.0850   -16.6510    -6.6170	H	2	fragment2	0.0000
1290	H652    -2.2180   -16.0100    -9.0140	H	2	fragment2	0.0000
1291	H653    -3.8730   -15.4670    -8.7650	H	2	fragment2	0.0000
1292	H654    -0.5730   -14.9370    -7.4260	H	2	fragment2	0.0000
1293	H655    -0.8090   -13.2890    -7.0950	H	2	fragment2	0.0000
1294	C404    -4.8510   -21.2500    -4.4070	C.2	2	fragment2	0.0000
1295	C405    -3.6700   -20.2910    -4.5970	C.3	2	fragment2	0.0000
1296	N118    -3.9960   -19.2620    -5.6350	N.3	2	fragment2	0.0000
1297	O114    -5.9450   -20.8350    -4.0830	O.2	2	fragment2	0.0000
1298	C406    -3.3680   -19.5880    -3.2740	C.3	2	fragment2	0.0000
1299	S6    -1.7970   -18.6960    -3.1430	S.3	2	fragment2	0.0000
1300	H656    -4.8630   -18.8050    -5.6230	H	2	fragment2	0.0000
1301	H657    -2.8070   -20.8530    -4.9050	H	2	fragment2	0.0000
1302	H658    -4.1620   -18.8820    -3.0810	H	2	fragment2	0.0000
1303	H659    -3.3910   -20.3280    -2.4890	H	2	fragment2	0.0000
1304	C407    -5.6110   -24.1410    -3.0480	C.2	2	fragment2	0.0000
1305	C408    -5.6910   -23.5180    -4.4460	C.3	2	fragment2	0.0000
1306	N119    -4.5990   -22.5140    -4.6160	N.3	2	fragment2	0.0000
1307	O115    -6.5290   -24.0290    -2.2610	O.2	2	fragment2	0.0000
1308	C409    -5.5370   -24.6120    -5.5030	C.3	2	fragment2	0.0000
1309	C410    -5.4320   -23.9640    -6.8860	C.3	2	fragment2	0.0000
1310	C411    -6.7610   -25.5280    -5.4660	C.3	2	fragment2	0.0000
1311	C412    -5.2890   -25.0610    -7.9440	C.3	2	fragment2	0.0000
1312	H660    -3.7010   -22.8020    -4.8830	H	2	fragment2	0.0000
1313	H661    -6.6450   -23.0340    -4.5680	H	2	fragment2	0.0000
1314	H662    -4.6490   -25.1900    -5.3030	H	2	fragment2	0.0000
1315	H663    -6.3210   -23.3830    -7.0840	H	2	fragment2	0.0000
1316	H664    -4.5700   -23.3140    -6.9190	H	2	fragment2	0.0000
1317	H665    -7.3670   -25.2930    -4.6040	H	2	fragment2	0.0000
1318	H666    -7.3480   -25.3890    -6.3620	H	2	fragment2	0.0000
1319	H667    -6.4430   -26.5590    -5.4070	H	2	fragment2	0.0000
1320	H668    -5.1140   -26.0110    -7.4620	H	2	fragment2	0.0000
1321	H669    -6.1940   -25.1220    -8.5310	H	2	fragment2	0.0000
1322	H670    -4.4580   -24.8340    -8.5950	H	2	fragment2	0.0000
1323	C413    -3.8200   -24.3850    -0.4300	C.2	2	fragment2	0.0000
1324	C414    -4.3460   -25.4180    -1.4300	C.3	2	fragment2	0.0000
1325	N120    -4.5100   -24.7870    -2.7720	N.3	2	fragment2	0.0000
1326	O116    -2.8770   -23.6720    -0.7120	O.2	2	fragment2	0.0000
1327	C415    -3.3530   -26.5740    -1.5380	C.3	2	fragment2	0.0000
1328	C416    -3.9960   -27.7160    -2.3280	C.3	2	fragment2	0.0000
1329	C417    -4.7370   -28.6430    -1.3610	C.3	2	fragment2	0.0000
1330	C418    -3.7620   -29.6960    -0.8300	C.3	2	fragment2	0.0000
1331	N121    -3.6240   -30.8150    -1.8040	N.3	2	fragment2	0.0000
1332	H671    -3.7970   -24.8570    -3.4410	H	2	fragment2	0.0000
1333	H672    -5.2960   -25.7930    -1.0920	H	2	fragment2	0.0000
1334	H673    -2.4600   -26.2400    -2.0450	H	2	fragment2	0.0000
1335	H674    -3.0890   -26.9200    -0.5490	H	2	fragment2	0.0000
1336	H675    -4.6920   -27.3110    -3.0480	H	2	fragment2	0.0000
1337	H676    -3.2310   -28.2720    -2.8490	H	2	fragment2	0.0000
1338	H677    -5.1340   -28.0670    -0.5380	H	2	fragment2	0.0000
1339	H678    -5.5510   -29.1290    -1.8780	H	2	fragment2	0.0000
1340	H679    -2.7940   -29.2450    -0.6710	H	2	fragment2	0.0000
1341	H680    -4.1280   -30.0870     0.1080	H	2	fragment2	0.0000
1342	H681    -3.4700   -30.4280    -2.7570	H	2	fragment2	0.0000
1343	H682    -2.8140   -31.4090    -1.5360	H	2	fragment2	0.0000
1344	H683    -4.4920   -31.3880    -1.7980	H	2	fragment2	0.0000
1345	C419    -3.1750   -24.0290     2.8430	C.2	2	fragment2	0.0000
1346	C420    -3.9980   -23.3400     1.7500	C.3	2	fragment2	0.0000
1347	N122    -4.4420   -24.3280     0.7190	N.3	2	fragment2	0.0000
1348	O117    -2.8580   -25.1990     2.7450	O.2	2	fragment2	0.0000
1349	C421    -5.2310   -22.6890     2.3780	C.3	2	fragment2	0.0000
1350	C422    -6.0130   -21.8690     1.3550	C.3	2	fragment2	0.0000
1351	O118    -6.0830   -23.7780     2.7200	O.3	2	fragment2	0.0000
1352	H684    -5.1920   -24.9310     0.9050	H	2	fragment2	0.0000
1353	H685    -3.3990   -22.5780     1.2820	H	2	fragment2	0.0000
1354	H686    -4.9800   -22.1020     3.2420	H	2	fragment2	0.0000
1355	H687    -6.1440   -23.8180     3.6770	H	2	fragment2	0.0000
1356	H688    -5.5820   -22.0020     0.3740	H	2	fragment2	0.0000
1357	H689    -7.0430   -22.1930     1.3380	H	2	fragment2	0.0000
1358	H690    -5.9750   -20.8220     1.6210	H	2	fragment2	0.0000
1359	C423    -2.9650   -24.4550     6.0510	C.2	2	fragment2	0.0000
1360	C424    -2.0420   -23.8640     4.9780	C.3	2	fragment2	0.0000
1361	N123    -2.8470   -23.2820     3.8630	N.3	2	fragment2	0.0000
1362	O119    -4.0590   -23.9700     6.2650	O.2	2	fragment2	0.0000
1363	C425    -1.1840   -22.7550     5.5920	C.3	2	fragment2	0.0000
1364	C426     0.1350   -23.3440     6.1030	C.2	2	fragment2	0.0000
1365	C427     1.0280   -23.9260     5.2270	C.2	2	fragment2	0.0000
1366	C428     0.4500   -23.2990     7.4470	C.2	2	fragment2	0.0000
1367	C429     2.2170   -24.4550     5.6860	C.2	2	fragment2	0.0000
1368	C430     1.6390   -23.8280     7.9050	C.2	2	fragment2	0.0000
1369	C431     2.5310   -24.4110     7.0290	C.2	2	fragment2	0.0000
1370	O120     3.7190   -24.9410     7.4890	O.3	2	fragment2	0.0000
1371	H691    -3.1280   -22.3430     3.8950	H	2	fragment2	0.0000
1372	H692    -1.4020   -24.6370     4.5910	H	2	fragment2	0.0000
1373	H693    -0.9710   -22.0050     4.8460	H	2	fragment2	0.0000
1374	H694    -1.7140   -22.2980     6.4150	H	2	fragment2	0.0000
1375	H695     0.7970   -23.9620     4.1720	H	2	fragment2	0.0000
1376	H696    -0.2380   -22.8450     8.1450	H	2	fragment2	0.0000
1377	H697     2.9060   -24.9080     4.9890	H	2	fragment2	0.0000
1378	H698     1.8740   -23.7820     8.9580	H	2	fragment2	0.0000
1379	H699     4.0210   -25.5910     6.8510	H	2	fragment2	0.0000
1380	C432    -2.4830   -26.3210     9.0400	C.2	2	fragment2	0.0000
1381	C433    -3.3220   -26.1400     7.7700	C.3	2	fragment2	0.0000
1382	N124    -2.4970   -25.4930     6.7000	N.3	2	fragment2	0.0000
1383	O121    -2.5790   -27.3260     9.7160	O.2	2	fragment2	0.0000
1384	C434    -3.7990   -27.5050     7.2770	C.3	2	fragment2	0.0000
1385	O122    -2.5990   -28.2250     7.0340	O.3	2	fragment2	0.0000
1386	H700    -1.6090   -25.8460     6.4850	H	2	fragment2	0.0000
1387	H701    -4.1750   -25.5230     7.9930	H	2	fragment2	0.0000
1388	H702    -4.3860   -28.0030     8.0350	H	2	fragment2	0.0000
1389	H703    -4.3670   -27.4060     6.3640	H	2	fragment2	0.0000
1390	H704    -2.3580   -28.0960     6.1140	H	2	fragment2	0.0000
1391	C435    -0.6210   -24.0040    11.1490	C.2	2	fragment2	0.0000
1392	C436    -0.8160   -25.4240    10.5470	C.3	2	fragment2	0.0000
1393	N125    -1.6770   -25.3390     9.3310	N.3	2	fragment2	0.0000
1394	O123     0.2140   -23.2570    10.6800	O.2	2	fragment2	0.0000
1395	C437     0.5470   -25.9800    10.1360	C.3	2	fragment2	0.0000
1396	C438     0.6650   -27.4250    10.6240	C.3	2	fragment2	0.0000
1397	C439     1.9370   -28.0480    10.0460	C.3	2	fragment2	0.0000
1398	C440     1.9450   -29.5460    10.3550	C.3	2	fragment2	0.0000
1399	N126     3.2220   -30.1650     9.9020	N.3	2	fragment2	0.0000
1400	H705    -1.6380   -24.5480     8.7550	H	2	fragment2	0.0000
1401	H706    -1.2630   -26.0870    11.2530	H	2	fragment2	0.0000
1402	H707     0.6430   -25.9500     9.0610	H	2	fragment2	0.0000
1403	H708     1.3300   -25.3830    10.5790	H	2	fragment2	0.0000
1404	H709     0.7120   -27.4410    11.7020	H	2	fragment2	0.0000
1405	H710    -0.1960   -27.9890    10.2980	H	2	fragment2	0.0000
1406	H711     1.9620   -27.8970     8.9760	H	2	fragment2	0.0000
1407	H712     2.8040   -27.5810    10.4890	H	2	fragment2	0.0000
1408	H713     1.8380   -29.6960    11.4190	H	2	fragment2	0.0000
1409	H714     1.1210   -30.0250     9.8460	H	2	fragment2	0.0000
1410	H715     3.8190   -29.4410     9.4530	H	2	fragment2	0.0000
1411	H716     3.7220   -30.5670    10.7210	H	2	fragment2	0.0000
1412	H717     3.0180   -30.9200     9.2160	H	2	fragment2	0.0000
1413	C441     0.1500   -22.0420    13.2720	C.2	2	fragment2	0.0000
1414	C442    -1.2770   -22.3120    12.7870	C.3	2	fragment2	0.0000
1415	N127    -1.3920   -23.6490    12.1820	N.3	2	fragment2	0.0000
1416	O124     0.7570   -22.8710    13.9200	O.2	2	fragment2	0.0000
1417	C443    -2.2660   -22.3070    13.9570	C.3	2	fragment2	0.0000
1418	C444    -3.0730   -23.6370    13.8840	C.3	2	fragment2	0.0000
1419	C445    -2.4020   -24.5210    12.8160	C.3	2	fragment2	0.0000
1420	H718    -1.5650   -21.5680    12.0770	H	2	fragment2	0.0000
1421	H719    -1.7310   -22.2510    14.8930	H	2	fragment2	0.0000
1422	H720    -2.9350   -21.4640    13.8720	H	2	fragment2	0.0000
1423	H721    -3.0530   -24.1350    14.8420	H	2	fragment2	0.0000
1424	H722    -4.0960   -23.4330    13.6040	H	2	fragment2	0.0000
1425	H723    -1.9230   -25.3670    13.2880	H	2	fragment2	0.0000
1426	H724    -3.1230   -24.8540    12.0850	H	2	fragment2	0.0000
1427	C446     2.0750   -19.0950    13.9460	C.2	2	fragment2	0.0000
1428	C447     2.0380   -20.5150    13.3590	C.3	2	fragment2	0.0000
1429	N128     0.6510   -20.8750    12.9380	N.3	2	fragment2	0.0000
1430	O125     1.0510   -18.5270    14.2740	O.2	2	fragment2	0.0000
1431	C448     2.9650   -20.5990    12.1470	C.3	2	fragment2	0.0000
1432	C449     2.4430   -19.6840    11.0410	C.2	2	fragment2	0.0000
1433	C450     1.3540   -20.0570    10.2710	C.2	2	fragment2	0.0000
1434	C451     3.0550   -18.4710    10.7950	C.2	2	fragment2	0.0000
1435	C452     0.8880   -19.2260     9.2730	C.2	2	fragment2	0.0000
1436	C453     2.5880   -17.6420     9.7990	C.2	2	fragment2	0.0000
1437	C454     1.5060   -18.0190     9.0380	C.2	2	fragment2	0.0000
1438	H725     0.1160   -20.2410    12.4150	H	2	fragment2	0.0000
1439	H726     2.3760   -21.2100    14.1070	H	2	fragment2	0.0000
1440	H727     3.9610   -20.2870    12.4270	H	2	fragment2	0.0000
1441	H728     2.9990   -21.6150    11.7830	H	2	fragment2	0.0000
1442	H729     0.8680   -21.0050    10.4520	H	2	fragment2	0.0000
1443	H730     3.9060   -18.1730    11.3840	H	2	fragment2	0.0000
1444	H731     0.0390   -19.5230     8.6760	H	2	fragment2	0.0000
1445	H732     3.0720   -16.6950     9.6180	H	2	fragment2	0.0000
1446	H733     1.1410   -17.3680     8.2570	H	2	fragment2	0.0000
1447	C455     3.9860   -16.2000    13.5890	C.2	2	fragment2	0.0000
1448	C456     3.4270   -17.1910    14.6500	C.3	2	fragment2	0.0000
1449	N129     3.2620   -18.5630    14.0600	N.3	2	fragment2	0.0000
1450	O126     4.8400   -16.5700    12.8090	O.2	2	fragment2	0.0000
1451	C457     4.4500   -17.3150    15.7750	C.3	2	fragment2	0.0000
1452	C458     4.4220   -16.0720    16.6410	C.2	2	fragment2	0.0000
1453	N130     4.8960   -14.8920    16.2830	N.2	2	fragment2	0.0000
1454	C459     4.7090   -14.0670    17.2620	C.2	2	fragment2	0.0000
1455	C460     3.9230   -15.9200    17.9200	C.2	2	fragment2	0.0000
1456	N131     4.1340   -14.6780    18.2270	N.3	2	fragment2	0.0000
1457	H734     4.0500   -19.0630    13.7610	H	2	fragment2	0.0000
1458	H735     2.4870   -16.8520    15.0510	H	2	fragment2	0.0000
1459	H736     4.2190   -18.1770    16.3840	H	2	fragment2	0.0000
1460	H737     5.4380   -17.4330    15.3550	H	2	fragment2	0.0000
1461	H738     3.4490   -16.6700    18.5150	H	2	fragment2	0.0000
1462	H739     4.9990   -13.0280    17.2630	H	2	fragment2	0.0000
1463	H740     3.8880   -14.2650    19.0810	H	2	fragment2	0.0000
1464	C461     5.5560   -13.8560    12.7580	C.2	2	fragment2	0.0000
1465	C462     4.0310   -13.9640    12.6170	C.3	2	fragment2	0.0000
1466	N132     3.5100   -14.9460    13.5760	N.3	2	fragment2	0.0000
1467	O127     6.2300   -13.2920    11.9200	O.2	2	fragment2	0.0000
1468	C463     3.3570   -12.6370    12.9810	C.3	2	fragment2	0.0000
1469	C464     2.3840   -12.9200    14.1640	C.3	2	fragment2	0.0000
1470	C465     2.4490   -14.4260    14.4670	C.3	2	fragment2	0.0000
1471	H741     3.7640   -14.2440    11.6200	H	2	fragment2	0.0000
1472	H742     4.1020   -11.9140    13.2810	H	2	fragment2	0.0000
1473	H743     2.8060   -12.2580    12.1330	H	2	fragment2	0.0000
1474	H744     2.6920   -12.3580    15.0330	H	2	fragment2	0.0000
1475	H745     1.3810   -12.6410    13.8920	H	2	fragment2	0.0000
1476	H746     2.6980   -14.5840    15.4930	H	2	fragment2	0.0000
1477	H747     1.5090   -14.8960    14.2380	H	2	fragment2	0.0000
1478	C466     8.3160   -14.7400    12.8180	C.2	2	fragment2	0.0000
1479	C467     7.5260   -14.3770    14.0880	C.3	2	fragment2	0.0000
1480	N133     6.0530   -14.4040    13.8320	N.3	2	fragment2	0.0000
1481	O128     9.4740   -14.3920    12.6920	O.2	2	fragment2	0.0000
1482	C468     7.8190   -15.3920    15.1800	C.3	2	fragment2	0.0000
1483	C469     9.2710   -15.3060    15.6270	C.3	2	fragment2	0.0000
1484	C470     9.5280   -16.4580    16.6020	C.3	2	fragment2	0.0000
1485	C471    10.5110   -16.0240    17.6790	C.3	2	fragment2	0.0000
1486	N134    11.5050   -15.0560    17.1300	N.3	2	fragment2	0.0000
1487	H748     5.4560   -14.8340    14.4800	H	2	fragment2	0.0000
1488	H749     7.8140   -13.4100    14.4260	H	2	fragment2	0.0000
1489	H750     7.1850   -15.2030    16.0230	H	2	fragment2	0.0000
1490	H751     7.6190   -16.3710    14.8080	H	2	fragment2	0.0000
1491	H752     9.9260   -15.3940    14.7730	H	2	fragment2	0.0000
1492	H753     9.4460   -14.3610    16.1180	H	2	fragment2	0.0000
1493	H754     8.5940   -16.7540    17.0650	H	2	fragment2	0.0000
1494	H755     9.9320   -17.2940    16.0710	H	2	fragment2	0.0000
1495	H756     9.9720   -15.5600    18.4880	H	2	fragment2	0.0000
1496	H757    11.0330   -16.8920    18.0540	H	2	fragment2	0.0000
1497	H758    11.4260   -15.0280    16.0930	H	2	fragment2	0.0000
1498	H759    11.3180   -14.1100    17.5180	H	2	fragment2	0.0000
1499	H760    12.4640   -15.3570    17.3970	H	2	fragment2	0.0000
1500	C472     7.7010   -15.1980     9.4120	C.2	2	fragment2	0.0000
1501	C473     8.3700   -15.8350    10.6390	C.3	2	fragment2	0.0000
1502	N135     7.6680   -15.4260    11.9040	N.3	2	fragment2	0.0000
1503	O129     7.6640   -15.7870     8.3480	O.2	2	fragment2	0.0000
1504	C474     8.3130   -17.3570    10.5200	C.3	2	fragment2	0.0000
1505	C475     8.6960   -17.9720    11.8680	C.2	2	fragment2	0.0000
1506	C476    10.0260   -18.1300    12.2150	C.2	2	fragment2	0.0000
1507	C477     7.7170   -18.3760    12.7590	C.2	2	fragment2	0.0000
1508	C478    10.3700   -18.6800    13.4330	C.2	2	fragment2	0.0000
1509	C479     8.0640   -18.9270    13.9760	C.2	2	fragment2	0.0000
1510	C480     9.3900   -19.0760    14.3130	C.2	2	fragment2	0.0000
1511	H761     6.7300   -15.6710    12.0470	H	2	fragment2	0.0000
1512	H762     9.3990   -15.5260    10.6800	H	2	fragment2	0.0000
1513	H763     7.3130   -17.6670    10.2560	H	2	fragment2	0.0000
1514	H764     9.0040   -17.6930     9.7630	H	2	fragment2	0.0000
1515	H765    10.8000   -17.8210    11.5280	H	2	fragment2	0.0000
1516	H766     6.6750   -18.2610    12.5000	H	2	fragment2	0.0000
1517	H767    11.4110   -18.8010    13.6950	H	2	fragment2	0.0000
1518	H768     7.2950   -19.2410    14.6650	H	2	fragment2	0.0000
1519	H769     9.6620   -19.4770    15.2820	H	2	fragment2	0.0000
1520	C481     7.1700   -11.9250     8.2530	C.2	2	fragment2	0.0000
1521	C482     6.5240   -13.2940     8.4590	C.3	2	fragment2	0.0000
1522	N136     7.1980   -14.0040     9.5910	N.3	2	fragment2	0.0000
1523	O130     7.2060   -11.1160     9.1590	O.2	2	fragment2	0.0000
1524	C483     5.0370   -13.1120     8.7990	C.3	2	fragment2	0.0000
1525	C484     4.3650   -14.4930     8.9990	C.3	2	fragment2	0.0000
1526	C485     4.3360   -12.3400     7.6740	C.3	2	fragment2	0.0000
1527	C486     4.3720   -15.3190     7.6980	C.3	2	fragment2	0.0000
1528	H770     7.2650   -13.5730    10.4630	H	2	fragment2	0.0000
1529	H771     6.6260   -13.8640     7.5620	H	2	fragment2	0.0000
1530	H772     4.9540   -12.5460     9.7140	H	2	fragment2	0.0000
1531	H773     4.8990   -15.0390     9.7620	H	2	fragment2	0.0000
1532	H774     3.3450   -14.3500     9.3230	H	2	fragment2	0.0000
1533	H775     4.9310   -12.3850     6.7740	H	2	fragment2	0.0000
1534	H776     3.3670   -12.7760     7.4820	H	2	fragment2	0.0000
1535	H777     4.2090   -11.3070     7.9640	H	2	fragment2	0.0000
1536	H778     4.6510   -14.7110     6.8640	H	2	fragment2	0.0000
1537	H779     5.0720   -16.1310     7.7920	H	2	fragment2	0.0000
1538	H780     3.3870   -15.7230     7.5220	H	2	fragment2	0.0000
1539	C487     7.5080    -9.6010     5.7490	C.2	2	fragment2	0.0000
1540	C488     8.3220   -10.3980     6.7680	C.3	2	fragment2	0.0000
1541	N137     7.6640   -11.6980     7.0600	N.3	2	fragment2	0.0000
1542	O131     7.6050    -8.3900     5.6920	O.2	2	fragment2	0.0000
1543	C489     9.7200   -10.6610     6.2110	C.3	2	fragment2	0.0000
1544	C490    10.6690   -10.9790     7.3690	C.3	2	fragment2	0.0000
1545	C491    11.3090    -9.6820     7.8640	C.3	2	fragment2	0.0000
1546	C492    12.1950    -9.9880     9.0740	C.3	2	fragment2	0.0000
1547	N138    11.6280    -9.3690    10.3040	N.3	2	fragment2	0.0000
1548	H781     7.5990   -12.3750     6.3660	H	2	fragment2	0.0000
1549	H782     8.4040    -9.8360     7.6690	H	2	fragment2	0.0000
1550	H783     9.6880   -11.4970     5.5280	H	2	fragment2	0.0000
1551	H784    10.0710    -9.7860     5.6840	H	2	fragment2	0.0000
1552	H785    10.1170   -11.4420     8.1740	H	2	fragment2	0.0000
1553	H786    11.4380   -11.6580     7.0310	H	2	fragment2	0.0000
1554	H787    11.9080    -9.2490     7.0760	H	2	fragment2	0.0000
1555	H788    10.5380    -8.9810     8.1480	H	2	fragment2	0.0000
1556	H789    12.2580   -11.0570     9.2140	H	2	fragment2	0.0000
1557	H790    13.1870    -9.5950     8.9050	H	2	fragment2	0.0000
1558	H791    11.4050    -8.3700    10.1190	H	2	fragment2	0.0000
1559	H792    10.7610    -9.8730    10.5780	H	2	fragment2	0.0000
1560	H793    12.3230    -9.4310    11.0750	H	2	fragment2	0.0000
1561	C493     4.5250   -10.2290     3.7950	C.2	2	fragment2	0.0000
1562	C494     5.9000    -9.5660     3.9420	C.3	2	fragment2	0.0000
1563	N139     6.7220   -10.2910     4.9630	N.3	2	fragment2	0.0000
1564	O132     4.4270   -11.4340     3.6980	O.2	2	fragment2	0.0000
1565	C495     6.6340    -9.5930     2.6010	C.3	2	fragment2	0.0000
1566	C496     5.6430    -9.2880     1.4750	C.3	2	fragment2	0.0000
1567	C497     6.4140    -8.8370     0.2330	C.2	2	fragment2	0.0000
1568	O133     7.5560    -9.2540     0.1230	O.2	2	fragment2	0.0000
1569	O134     5.8190    -8.1010    -0.5370	O.3	2	fragment2	0.0000
1570	H794     6.6710   -11.2770     5.0430	H	2	fragment2	0.0000
1571	H795     5.7690    -8.5410     4.2510	H	2	fragment2	0.0000
1572	H796     7.4170    -8.8500     2.6040	H	2	fragment2	0.0000
1573	H797     7.0720   -10.5660     2.4470	H	2	fragment2	0.0000
1574	H798     5.0720   -10.1730     1.2390	H	2	fragment2	0.0000
1575	H799     4.9700    -8.5010     1.7830	H	2	fragment2	0.0000
1576	C498     1.5190    -9.6060     2.2830	C.2	2	fragment2	0.0000
1577	C499     2.1090    -9.9710     3.6480	C.3	2	fragment2	0.0000
1578	N140     3.4920    -9.4180     3.7820	N.3	2	fragment2	0.0000
1579	O135     1.8170    -8.5640     1.7350	O.2	2	fragment2	0.0000
1580	C500     1.2300    -9.3840     4.7520	C.3	2	fragment2	0.0000
1581	C501     0.0070   -10.2800     4.9480	C.3	2	fragment2	0.0000
1582	C502     0.3230   -11.3350     6.0080	C.3	2	fragment2	0.0000
1583	C503    -1.1720    -9.4280     5.4210	C.3	2	fragment2	0.0000
1584	H800     3.6260    -8.4540     3.8550	H	2	fragment2	0.0000
1585	H801     2.1380   -11.0380     3.7500	H	2	fragment2	0.0000
1586	H802     1.7920    -9.3290     5.6720	H	2	fragment2	0.0000
1587	H803     0.9110    -8.3910     4.4720	H	2	fragment2	0.0000
1588	H804    -0.2440   -10.7640     4.0160	H	2	fragment2	0.0000
1589	H805     1.3600   -11.6280     5.9340	H	2	fragment2	0.0000
1590	H806     0.1370   -10.9300     6.9920	H	2	fragment2	0.0000
1591	H807    -0.3030   -12.2020     5.8570	H	2	fragment2	0.0000
1592	H808    -0.8630    -8.8050     6.2470	H	2	fragment2	0.0000
1593	H809    -1.5160    -8.8010     4.6120	H	2	fragment2	0.0000
1594	H810    -1.9790   -10.0690     5.7430	H	2	fragment2	0.0000
1595	C504    -1.4240   -10.5710     0.4630	C.2	2	fragment2	0.0000
1596	C505     0.0620   -10.2070     0.4370	C.3	2	fragment2	0.0000
1597	N141     0.6860   -10.4760     1.7680	N.3	2	fragment2	0.0000
1598	O136    -1.8220   -11.5210     1.1060	O.2	2	fragment2	0.0000
1599	C506     0.7670   -11.0460    -0.6180	C.3	2	fragment2	0.0000
1600	C507     2.0830   -10.3720    -1.0140	C.3	2	fragment2	0.0000
1601	C508     3.1460   -11.4480    -1.2280	C.3	2	fragment2	0.0000
1602	C509     4.7120   -10.7400    -2.9260	C.2	2	fragment2	0.0000
1603	N142     4.4150   -10.7950    -1.6560	N.3	2	fragment2	0.0000
1604	N143     3.7600   -10.8870    -3.8070	N.3	2	fragment2	0.0000
1605	N144     5.9530   -10.5370    -3.2730	N.2	2	fragment2	0.0000
1606	H811     0.4730   -11.3000     2.2540	H	2	fragment2	0.0000
1607	H812     0.1690    -9.1760     0.1930	H	2	fragment2	0.0000
1608	H813     0.9690   -12.0140    -0.2160	H	2	fragment2	0.0000
1609	H814     0.1330   -11.1470    -1.4860	H	2	fragment2	0.0000
1610	H815     1.9440    -9.8120    -1.9270	H	2	fragment2	0.0000
1611	H816     2.4010    -9.7020    -0.2320	H	2	fragment2	0.0000
1612	H817     3.3140   -11.9850    -0.3060	H	2	fragment2	0.0000
1613	H818     2.8210   -12.1400    -1.9900	H	2	fragment2	0.0000
1614	H819     5.0210   -10.4110    -0.9900	H	2	fragment2	0.0000
1615	H820     2.8190   -11.0400    -3.5050	H	2	fragment2	0.0000
1616	H821     3.9720   -10.8480    -4.7840	H	2	fragment2	0.0000
1617	H822     6.6570   -10.4280    -2.5700	H	2	fragment2	0.0000
1618	H823     6.2010   -10.4920    -4.2400	H	2	fragment2	0.0000
1619	C510    -4.2370    -9.8060    -1.6640	C.2	2	fragment2	0.0000
1620	C511    -3.6750   -10.0900    -0.2690	C.3	2	fragment2	0.0000
1621	N145    -2.2120    -9.8040    -0.2370	N.3	2	fragment2	0.0000
1622	O137    -4.0720    -8.7230    -2.1900	O.2	2	fragment2	0.0000
1623	C512    -4.3770    -9.2000     0.7530	C.3	2	fragment2	0.0000
1624	C513    -5.8100    -9.6950     0.9510	C.3	2	fragment2	0.0000
1625	C514    -3.6280    -9.2760     2.0860	C.3	2	fragment2	0.0000
1626	H824    -1.8470    -9.0430    -0.7350	H	2	fragment2	0.0000
1627	H825    -3.8440   -11.1220    -0.0200	H	2	fragment2	0.0000
1628	H826    -4.3890    -8.1800     0.4000	H	2	fragment2	0.0000
1629	H827    -5.8000   -10.7380     1.2330	H	2	fragment2	0.0000
1630	H828    -6.2890    -9.1210     1.7290	H	2	fragment2	0.0000
1631	H829    -6.3650    -9.5800     0.0310	H	2	fragment2	0.0000
1632	H830    -3.4260   -10.3080     2.3330	H	2	fragment2	0.0000
1633	H831    -2.6940    -8.7390     2.0100	H	2	fragment2	0.0000
1634	H832    -4.2300    -8.8360     2.8670	H	2	fragment2	0.0000
1635	C515    -6.9830   -10.8770    -3.5520	C.2	2	fragment2	0.0000
1636	C516    -5.4780   -10.6080    -3.5960	C.3	2	fragment2	0.0000
1637	N146    -4.8880   -10.7910    -2.2320	N.3	2	fragment2	0.0000
1638	O138    -7.4140   -11.9780    -3.2710	O.2	2	fragment2	0.0000
1639	C517    -4.8060   -11.5840    -4.5670	C.3	2	fragment2	0.0000
1640	C518    -3.3730   -11.1130    -4.8340	C.3	2	fragment2	0.0000
1641	C519    -5.5820   -11.6130    -5.8880	C.3	2	fragment2	0.0000
1642	C520    -2.4290   -12.3130    -4.7550	C.3	2	fragment2	0.0000
1643	H833    -4.9900   -11.6480    -1.7640	H	2	fragment2	0.0000
1644	H834    -5.3100    -9.5980    -3.9310	H	2	fragment2	0.0000
1645	H835    -4.7900   -12.5730    -4.1370	H	2	fragment2	0.0000
1646	H836    -3.3130   -10.6680    -5.8170	H	2	fragment2	0.0000
1647	H837    -3.0890   -10.3790    -4.0950	H	2	fragment2	0.0000
1648	H838    -5.8200   -10.6060    -6.1940	H	2	fragment2	0.0000
1649	H839    -4.9810   -12.0840    -6.6540	H	2	fragment2	0.0000
1650	H840    -6.4960   -12.1730    -5.7620	H	2	fragment2	0.0000
1651	H841    -2.8070   -13.1160    -5.3710	H	2	fragment2	0.0000
1652	H842    -1.4470   -12.0290    -5.1040	H	2	fragment2	0.0000
1653	H843    -2.3580   -12.6520    -3.7320	H	2	fragment2	0.0000
1654	C521    -9.6970   -10.8050    -5.0410	C.2	2	fragment2	0.0000
1655	C522    -9.2300   -10.0290    -3.8050	C.3	2	fragment2	0.0000
1656	N147    -7.7500    -9.8610    -3.8310	N.3	2	fragment2	0.0000
1657	O139    -8.9700   -10.9310    -6.0050	O.2	2	fragment2	0.0000
1658	C523    -9.8810    -8.6470    -3.7920	C.3	2	fragment2	0.0000
1659	C524   -11.3960    -8.8030    -3.9360	C.3	2	fragment2	0.0000
1660	C525   -12.0810    -7.5140    -3.4790	C.2	2	fragment2	0.0000
1661	O140   -12.2870    -7.4050    -2.2810	O.2	2	fragment2	0.0000
1662	O141   -12.3610    -6.7110    -4.3530	O.3	2	fragment2	0.0000
1663	H844    -7.3550    -8.9930    -4.0590	H	2	fragment2	0.0000
1664	H845    -9.5150   -10.5650    -2.9170	H	2	fragment2	0.0000
1665	H846    -9.6540    -8.1490    -2.8610	H	2	fragment2	0.0000
1666	H847    -9.4960    -8.0570    -4.6110	H	2	fragment2	0.0000
1667	H848   -11.6480    -8.9950    -4.9680	H	2	fragment2	0.0000
1668	H849   -11.7390    -9.6250    -3.3250	H	2	fragment2	0.0000
1669	C526   -11.0710   -11.3940    -7.4550	C.2	2	fragment2	0.0000
1670	C527   -11.4460   -12.0830    -6.1400	C.3	2	fragment2	0.0000
1671	N148   -10.9030   -11.3150    -4.9770	N.3	2	fragment2	0.0000
1672	O142   -11.1380   -10.1850    -7.5660	O.2	2	fragment2	0.0000
1673	C528   -12.9690   -12.1540    -6.0250	C.3	2	fragment2	0.0000
1674	O143   -13.4170   -10.9430    -6.6180	O.3	2	fragment2	0.0000
1675	H850   -11.4440   -11.2000    -4.1680	H	2	fragment2	0.0000
1676	H851   -11.0410   -13.0830    -6.1310	H	2	fragment2	0.0000
1677	H852   -13.3550   -13.0020    -6.5700	H	2	fragment2	0.0000
1678	H853   -13.2740   -12.1980    -4.9910	H	2	fragment2	0.0000
1679	H854   -14.3760   -10.9350    -6.5880	H	2	fragment2	0.0000
1680	C529   -10.8870   -12.4540   -10.8730	C.2	2	fragment2	0.0000
1681	C530   -10.2950   -11.6080    -9.7380	C.3	2	fragment2	0.0000
1682	N149   -10.6820   -12.1840    -8.4190	N.3	2	fragment2	0.0000
1683	O144   -11.7140   -13.3150   -10.6450	O.2	2	fragment2	0.0000
1684	H855   -10.6440   -13.1520    -8.2750	H	2	fragment2	0.0000
1685	H856   -10.6690   -10.5990    -9.8120	H	2	fragment2	0.0000
1686	H857    -9.2200   -11.5990    -9.8130	H	2	fragment2	0.0000
1687	C531   -10.3870   -14.3440   -13.2220	C.2	2	fragment2	0.0000
1688	C532   -10.9230   -12.9140   -13.2600	C.3	2	fragment2	0.0000
1689	N150   -10.4440   -12.1850   -12.0810	N.3	2	fragment2	0.0000
1690	O145   -10.6540   -15.1460   -14.0960	O.2	2	fragment2	0.0000
1691	C533   -10.3460   -12.1530   -14.4610	C.3	2	fragment2	0.0000
1692	C534    -9.4200   -11.0300   -13.8930	C.3	2	fragment2	0.0000
1693	C535    -9.4410   -11.1500   -12.3570	C.3	2	fragment2	0.0000
1694	H858   -11.9960   -12.9090   -13.3000	H	2	fragment2	0.0000
1695	H859    -9.7750   -12.8240   -15.0840	H	2	fragment2	0.0000
1696	H860   -11.1470   -11.7150   -15.0380	H	2	fragment2	0.0000
1697	H861    -8.4120   -11.1630   -14.2600	H	2	fragment2	0.0000
1698	H862    -9.7880   -10.0610   -14.1930	H	2	fragment2	0.0000
1699	H863    -8.4740   -11.4640   -11.9940	H	2	fragment2	0.0000
1700	H864    -9.7270   -10.2180   -11.9010	H	2	fragment2	0.0000
1701	C536    -9.5300   -16.5810   -10.7100	C.2	2	fragment2	0.0000
1702	C537    -9.0400   -15.9670   -12.0240	C.3	2	fragment2	0.0000
1703	N151    -9.6390   -14.6150   -12.1930	N.3	2	fragment2	0.0000
1704	O146    -9.3900   -17.7670   -10.4820	O.2	2	fragment2	0.0000
1705	C538    -7.5290   -15.8050   -11.9710	C.3	2	fragment2	0.0000
1706	C539    -7.1480   -15.2390   -10.6020	C.2	2	fragment2	0.0000
1707	N152    -7.5980   -14.1290   -10.1130	N.2	2	fragment2	0.0000
1708	C540    -7.1290   -13.9220    -8.9410	C.2	2	fragment2	0.0000
1709	C541    -6.3100   -15.7630    -9.6150	C.2	2	fragment2	0.0000
1710	N153    -6.3390   -14.9060    -8.6090	N.3	2	fragment2	0.0000
1711	H865    -9.4670   -13.9220   -11.5220	H	2	fragment2	0.0000
1712	H866    -9.3090   -16.6050   -12.8490	H	2	fragment2	0.0000
1713	H867    -7.0510   -16.7550   -12.1170	H	2	fragment2	0.0000
1714	H868    -7.2060   -15.1210   -12.7430	H	2	fragment2	0.0000
1715	H869    -8.2160   -13.5270   -10.5790	H	2	fragment2	0.0000
1716	H870    -5.7420   -16.6690    -9.6700	H	2	fragment2	0.0000
1717	H871    -7.3510   -13.0610    -8.3280	H	2	fragment2	0.0000
1718	C542   -11.9100   -15.5540    -8.1880	C.2	2	fragment2	0.0000
1719	C543   -10.5980   -16.2550    -8.5600	C.3	2	fragment2	0.0000
1720	N154   -10.0950   -15.7520    -9.8720	N.3	2	fragment2	0.0000
1721	O147   -12.0220   -14.3480    -8.2910	O.2	2	fragment2	0.0000
1722	C544    -9.5480   -15.9670    -7.4850	C.3	2	fragment2	0.0000
1723	S7    -9.4590   -17.0970    -6.0680	S.3	2	fragment2	0.0000
1724	H872   -10.1880   -14.8040   -10.1050	H	2	fragment2	0.0000
1725	H873   -10.7650   -17.3140    -8.6240	H	2	fragment2	0.0000
1726	H874    -8.5760   -15.9540    -7.9580	H	2	fragment2	0.0000
1727	H875    -9.7330   -14.9760    -7.0970	H	2	fragment2	0.0000
1728	C545   -14.2680   -15.6020    -5.8500	C.2	2	fragment2	0.0000
1729	C546   -14.1840   -15.7330    -7.3750	C.3	2	fragment2	0.0000
1730	N155   -12.8720   -16.3290    -7.7630	N.3	2	fragment2	0.0000
1731	O148   -15.3420   -15.6120    -5.2810	O.2	2	fragment2	0.0000
1732	C547   -15.3110   -16.6380    -7.8720	C.3	2	fragment2	0.0000
1733	H876   -12.7340   -17.2920    -7.6980	H	2	fragment2	0.0000
1734	H877   -14.2830   -14.7630    -7.8230	H	2	fragment2	0.0000
1735	H878   -15.2040   -16.8020    -8.9350	H	2	fragment2	0.0000
1736	H879   -15.2680   -17.5880    -7.3600	H	2	fragment2	0.0000
1737	H880   -16.2650   -16.1710    -7.6780	H	2	fragment2	0.0000
1738	C548   -11.9620   -14.4580    -3.2870	C.2	2	fragment2	0.0000
1739	C549   -13.1160   -15.3540    -3.7360	C.3	2	fragment2	0.0000
1740	N156   -13.1300   -15.4800    -5.2240	N.3	2	fragment2	0.0000
1741	O149   -11.6240   -13.4970    -3.9380	O.2	2	fragment2	0.0000
1742	C550   -12.9470   -16.7450    -3.1240	C.3	2	fragment2	0.0000
1743	C551   -13.9850   -17.6940    -3.7290	C.2	2	fragment2	0.0000
1744	O150   -13.6500   -18.6640    -4.3800	O.2	2	fragment2	0.0000
1745	N157   -15.2530   -17.4520    -3.5380	N.3	2	fragment2	0.0000
1746	H881   -12.2890   -15.4740    -5.7280	H	2	fragment2	0.0000
1747	H882   -14.0390   -14.9320    -3.3980	H	2	fragment2	0.0000
1748	H883   -11.9560   -17.1200    -3.3340	H	2	fragment2	0.0000
1749	H884   -13.0910   -16.6960    -2.0560	H	2	fragment2	0.0000
1750	H885   -15.5290   -16.6720    -3.0130	H	2	fragment2	0.0000
1751	H886   -15.9290   -18.0510    -3.9180	H	2	fragment2	0.0000
1752	C552    -9.1550   -14.9420    -1.1500	C.2	2	fragment2	0.0000
1753	C553   -10.2590   -13.9990    -1.6360	C.3	2	fragment2	0.0000
1754	N158   -11.4050   -14.7940    -2.1710	N.3	2	fragment2	0.0000
1755	O151    -9.4270   -15.9270    -0.4900	O.2	2	fragment2	0.0000
1756	C554   -10.7530   -13.1300    -0.4810	C.3	2	fragment2	0.0000
1757	C555    -9.7010   -12.9770     0.6190	C.3	2	fragment2	0.0000
1758	O152   -10.8970   -11.8300    -1.0440	O.3	2	fragment2	0.0000
1759	H887   -11.7430   -15.5590    -1.6800	H	2	fragment2	0.0000
1760	H888    -9.8730   -13.3690    -2.4060	H	2	fragment2	0.0000
1761	H889   -11.6780   -13.4840    -0.0900	H	2	fragment2	0.0000
1762	H890   -10.9320   -11.1970    -0.3240	H	2	fragment2	0.0000
1763	H891    -8.7420   -12.7460     0.1790	H	2	fragment2	0.0000
1764	H892    -9.9860   -12.1760     1.2850	H	2	fragment2	0.0000
1765	H893    -9.6240   -13.8960     1.1820	H	2	fragment2	0.0000
1766	C556    -5.6960   -14.6300    -0.4160	C.2	2	fragment2	0.0000
1767	C557    -6.7880   -15.4840    -1.0640	C.3	2	fragment2	0.0000
1768	N159    -7.9320   -14.6190    -1.4890	N.3	2	fragment2	0.0000
1769	O153    -5.1110   -13.7790    -1.0540	O.2	2	fragment2	0.0000
1770	C558    -6.2170   -16.1950    -2.2910	C.3	2	fragment2	0.0000
1771	C559    -6.8540   -15.6080    -3.5530	C.3	2	fragment2	0.0000
1772	C560    -6.1900   -16.2210    -4.7880	C.2	2	fragment2	0.0000
1773	O154    -5.6510   -17.3040    -4.6300	O.2	2	fragment2	0.0000
1774	O155    -6.2600   -15.5720    -5.8180	O.3	2	fragment2	0.0000
1775	H894    -7.7670   -13.8100    -2.0190	H	2	fragment2	0.0000
1776	H895    -7.1310   -16.2180    -0.3560	H	2	fragment2	0.0000
1777	H896    -5.1470   -16.0550    -2.3260	H	2	fragment2	0.0000
1778	H897    -6.4350   -17.2510    -2.2330	H	2	fragment2	0.0000
1779	H898    -7.9100   -15.8320    -3.5690	H	2	fragment2	0.0000
1780	H899    -6.7150   -14.5370    -3.5690	H	2	fragment2	0.0000
1781	C561    -3.0260   -14.7480     1.3740	C.2	2	fragment2	0.0000
1782	C562    -4.3960   -14.0840     1.5430	C.3	2	fragment2	0.0000
1783	N160    -5.4450   -14.8760     0.8410	N.3	2	fragment2	0.0000
1784	O156    -2.7240   -15.7260     2.0280	O.2	2	fragment2	0.0000
1785	C563    -4.7370   -14.0020     3.0320	C.3	2	fragment2	0.0000
1786	C564    -6.1740   -13.4950     3.1930	C.3	2	fragment2	0.0000
1787	C565    -3.7760   -13.0280     3.7160	C.3	2	fragment2	0.0000
1788	C566    -6.5190   -13.4270     4.6830	C.3	2	fragment2	0.0000
1789	H900    -5.9410   -15.5740     1.3180	H	2	fragment2	0.0000
1790	H901    -4.3640   -13.0910     1.1320	H	2	fragment2	0.0000
1791	H902    -4.6420   -14.9770     3.4820	H	2	fragment2	0.0000
1792	H903    -6.2640   -12.5130     2.7550	H	2	fragment2	0.0000
1793	H904    -6.8550   -14.1690     2.6940	H	2	fragment2	0.0000
1794	H905    -3.0150   -12.7150     3.0160	H	2	fragment2	0.0000
1795	H906    -4.3200   -12.1610     4.0600	H	2	fragment2	0.0000
1796	H907    -3.3060   -13.5120     4.5590	H	2	fragment2	0.0000
1797	H908    -5.7100   -13.8450     5.2640	H	2	fragment2	0.0000
1798	H909    -6.6710   -12.3980     4.9750	H	2	fragment2	0.0000
1799	H910    -7.4210   -13.9870     4.8750	H	2	fragment2	0.0000
1800	C567     0.1190   -14.1230     1.2480	C.2	2	fragment2	0.0000
1801	C568    -0.8700   -14.7860     0.2900	C.3	2	fragment2	0.0000
1802	N161    -2.2270   -14.2030     0.4980	N.3	2	fragment2	0.0000
1803	O157    -0.0980   -13.0150     1.6950	O.2	2	fragment2	0.0000
1804	C569    -0.4320   -14.5510    -1.1590	C.3	2	fragment2	0.0000
1805	C570    -1.4110   -15.2800    -2.0930	C.3	2	fragment2	0.0000
1806	C571     0.9840   -15.1130    -1.3550	C.3	2	fragment2	0.0000
1807	C572    -1.0470   -14.9990    -3.5550	C.3	2	fragment2	0.0000
1808	H911    -2.5150   -13.4190    -0.0160	H	2	fragment2	0.0000
1809	H912    -0.9030   -15.8440     0.4860	H	2	fragment2	0.0000
1810	H913    -0.4360   -13.4940    -1.3740	H	2	fragment2	0.0000
1811	H914    -1.3620   -16.3430    -1.9070	H	2	fragment2	0.0000
1812	H915    -2.4170   -14.9370    -1.8990	H	2	fragment2	0.0000
1813	H916     1.0190   -16.1380    -1.0170	H	2	fragment2	0.0000
1814	H917     1.2560   -15.0740    -2.3980	H	2	fragment2	0.0000
1815	H918     1.6910   -14.5280    -0.7860	H	2	fragment2	0.0000
1816	H919    -0.4970   -14.0730    -3.6260	H	2	fragment2	0.0000
1817	H920    -0.4370   -15.8030    -3.9390	H	2	fragment2	0.0000
1818	H921    -1.9470   -14.9240    -4.1470	H	2	fragment2	0.0000
1819	C573     3.5950   -14.6820     2.1280	C.2	2	fragment2	0.0000
1820	C574     2.1770   -14.2250     2.4860	C.3	2	fragment2	0.0000
1821	N162     1.1830   -14.8100     1.5470	N.3	2	fragment2	0.0000
1822	O158     3.7780   -15.6680     1.4390	O.2	2	fragment2	0.0000
1823	C575     1.8330   -14.6770     3.9010	C.3	2	fragment2	0.0000
1824	C576     1.7850   -16.2050     3.9440	C.3	2	fragment2	0.0000
1825	C577     2.9100   -14.1840     4.8570	C.3	2	fragment2	0.0000
1826	H922     1.3270   -15.6950     1.1610	H	2	fragment2	0.0000
1827	H923     2.1260   -13.1540     2.4350	H	2	fragment2	0.0000
1828	H924     0.8750   -14.2720     4.1900	H	2	fragment2	0.0000
1829	H925     1.0610   -16.5670     3.2290	H	2	fragment2	0.0000
1830	H926     2.7570   -16.6070     3.7000	H	2	fragment2	0.0000
1831	H927     1.5030   -16.5320     4.9330	H	2	fragment2	0.0000
1832	H928     3.1340   -13.1490     4.6520	H	2	fragment2	0.0000
1833	H929     2.5640   -14.2780     5.8740	H	2	fragment2	0.0000
1834	H930     3.8020   -14.7730     4.7280	H	2	fragment2	0.0000
1835	C578     6.7630   -14.5100     3.6370	C.2	2	fragment2	0.0000
1836	C579     5.9900   -14.3000     2.3270	C.3	2	fragment2	0.0000
1837	N163     4.5670   -13.9470     2.6160	N.3	2	fragment2	0.0000
1838	O159     6.9730   -13.5770     4.4050	O.2	2	fragment2	0.0000
1839	C580     6.6270   -13.1630     1.5320	C.3	2	fragment2	0.0000
1840	C581     6.9730   -13.6610     0.1260	C.3	2	fragment2	0.0000
1841	C582     8.0900   -14.7020     0.2180	C.3	2	fragment2	0.0000
1842	C583     9.3270   -14.1770    -0.5130	C.3	2	fragment2	0.0000
1843	N164     9.7830   -12.8920     0.0870	N.3	2	fragment2	0.0000
1844	H931     4.3600   -13.1680     3.1720	H	2	fragment2	0.0000
1845	H932     6.0280   -15.2020     1.7470	H	2	fragment2	0.0000
1846	H933     5.9330   -12.3410     1.4610	H	2	fragment2	0.0000
1847	H934     7.5240   -12.8280     2.0310	H	2	fragment2	0.0000
1848	H935     6.0990   -14.1060    -0.3270	H	2	fragment2	0.0000
1849	H936     7.3010   -12.8310    -0.4820	H	2	fragment2	0.0000
1850	H937     8.3310   -14.8860     1.2550	H	2	fragment2	0.0000
1851	H938     7.7640   -15.6240    -0.2380	H	2	fragment2	0.0000
1852	H939    10.1240   -14.9030    -0.4420	H	2	fragment2	0.0000
1853	H940     9.0890   -14.0150    -1.5540	H	2	fragment2	0.0000
1854	H941     9.1290   -12.6130     0.8460	H	2	fragment2	0.0000
1855	H942    10.7380   -13.0130     0.4800	H	2	fragment2	0.0000
1856	H943     9.8000   -12.1540    -0.6450	H	2	fragment2	0.0000
1857	C584     9.3630   -15.5290     4.9780	C.2	2	fragment2	0.0000
1858	C585     7.9310   -16.0510     5.1040	C.3	2	fragment2	0.0000
1859	N165     7.1660   -15.7370     3.8620	N.3	2	fragment2	0.0000
1860	O160     9.9480   -15.5680     3.9120	O.2	2	fragment2	0.0000
1861	C586     7.9610   -17.5670     5.3060	C.3	2	fragment2	0.0000
1862	C587     6.6410   -18.0320     5.9250	C.3	2	fragment2	0.0000
1863	C588     5.4710   -17.4700     5.1140	C.3	2	fragment2	0.0000
1864	C589     6.5820   -19.5610     5.8960	C.3	2	fragment2	0.0000
1865	H944     6.9660   -16.4460     3.2160	H	2	fragment2	0.0000
1866	H945     7.4520   -15.5870     5.9490	H	2	fragment2	0.0000
1867	H946     8.1050   -18.0540     4.3550	H	2	fragment2	0.0000
1868	H947     8.7760   -17.8260     5.9620	H	2	fragment2	0.0000
1869	H948     6.5780   -17.6880     6.9450	H	2	fragment2	0.0000
1870	H949     5.6590   -17.6060     4.0600	H	2	fragment2	0.0000
1871	H950     4.5610   -17.9870     5.3810	H	2	fragment2	0.0000
1872	H951     5.3550   -16.4180     5.3230	H	2	fragment2	0.0000
1873	H952     7.5260   -19.9690     6.2270	H	2	fragment2	0.0000
1874	H953     5.7960   -19.9090     6.5490	H	2	fragment2	0.0000
1875	H954     6.3830   -19.8990     4.8890	H	2	fragment2	0.0000
1876	C590    12.2630   -15.5110     5.4010	C.2	2	fragment2	0.0000
1877	C591    11.2910   -14.5160     6.0510	C.3	2	fragment2	0.0000
1878	N166     9.8970   -15.0600     6.0740	N.3	2	fragment2	0.0000
1879	O161    13.2140   -15.1160     4.7560	O.2	2	fragment2	0.0000
1880	C592    11.7380   -14.2340     7.4850	C.3	2	fragment2	0.0000
1881	O162    12.0130   -15.5180     8.0230	O.3	2	fragment2	0.0000
1882	H955     9.3830   -15.0620     6.9110	H	2	fragment2	0.0000
1883	H956    11.3020   -13.5960     5.4930	H	2	fragment2	0.0000
1884	H957    12.6310   -13.6260     7.4950	H	2	fragment2	0.0000
1885	H958    10.9490   -13.7550     8.0450	H	2	fragment2	0.0000
1886	H959    12.0610   -15.4350     8.9780	H	2	fragment2	0.0000
1887	C593    12.9700   -17.6310     3.4560	C.2	2	fragment2	0.0000
1888	C594    12.9240   -17.7970     4.9780	C.3	2	fragment2	0.0000
1889	N167    12.0080   -16.7790     5.5800	N.3	2	fragment2	0.0000
1890	O163    13.7280   -18.2960     2.7770	O.2	2	fragment2	0.0000
1891	C595    12.4210   -19.1970     5.3250	C.3	2	fragment2	0.0000
1892	C596    10.8940   -19.1960     5.3410	C.2	2	fragment2	0.0000
1893	O164    10.3430   -18.7990     4.3280	O.2	2	fragment2	0.0000
1894	O165    10.3640   -19.5910     6.3660	O.3	2	fragment2	0.0000
1895	H960    11.2270   -17.0590     6.1000	H	2	fragment2	0.0000
1896	H961    13.9140   -17.6660     5.3800	H	2	fragment2	0.0000
1897	H962    12.7690   -19.9050     4.5860	H	2	fragment2	0.0000
1898	H963    12.7880   -19.4880     6.2980	H	2	fragment2	0.0000
1899	C597    11.1360   -17.4400     0.7940	C.2	2	fragment2	0.0000
1900	C598    12.1410   -16.5130     1.4820	C.3	2	fragment2	0.0000
1901	N168    12.1560   -16.7450     2.9540	N.3	2	fragment2	0.0000
1902	O166    11.3120   -17.7940    -0.3550	O.2	2	fragment2	0.0000
1903	H964    11.5620   -16.2360     3.5390	H	2	fragment2	0.0000
1904	H965    11.8690   -15.4860     1.2880	H	2	fragment2	0.0000
1905	H966    13.1270   -16.7000     1.0840	H	2	fragment2	0.0000
1906	C599     7.7140   -18.0070     0.8140	C.2	2	fragment2	0.0000
1907	C600     9.0660   -18.7210     0.9080	C.3	2	fragment2	0.0000
1908	N169    10.1000   -17.8120     1.5120	N.3	2	fragment2	0.0000
1909	O167     7.4310   -17.1080     1.5810	O.2	2	fragment2	0.0000
1910	C601     8.9230   -19.9640     1.7800	C.3	2	fragment2	0.0000
1911	C602    10.2010   -20.7970     1.6710	C.3	2	fragment2	0.0000
1912	C603    10.2890   -21.7440     2.8680	C.3	2	fragment2	0.0000
1913	C604     9.3280   -23.9370     3.1880	C.2	2	fragment2	0.0000
1914	N170     9.1460   -22.6990     2.8160	N.3	2	fragment2	0.0000
1915	N171     9.6290   -24.1840     4.4340	N.3	2	fragment2	0.0000
1916	N172     9.2020   -24.8870     2.3020	N.2	2	fragment2	0.0000
1917	H967    10.0050   -17.5000     2.4410	H	2	fragment2	0.0000
1918	H968     9.3770   -19.0170    -0.0780	H	2	fragment2	0.0000
1919	H969     8.7640   -19.6720     2.8050	H	2	fragment2	0.0000
1920	H970     8.0790   -20.5480     1.4430	H	2	fragment2	0.0000
1921	H971    10.1830   -21.3710     0.7560	H	2	fragment2	0.0000
1922	H972    11.0610   -20.1430     1.6620	H	2	fragment2	0.0000
1923	H973    11.2160   -22.2930     2.8320	H	2	fragment2	0.0000
1924	H974    10.2430   -21.1800     3.7870	H	2	fragment2	0.0000
1925	H975     8.2650   -22.4010     2.5050	H	2	fragment2	0.0000
1926	H976     9.7170   -23.4300     5.0860	H	2	fragment2	0.0000
1927	H977     9.7720   -25.1260     4.7370	H	2	fragment2	0.0000
1928	H978     8.9700   -24.6610     1.3560	H	2	fragment2	0.0000
1929	H979     9.3380   -25.8410     2.5700	H	2	fragment2	0.0000
1930	C605     4.4520   -18.8430    -0.1290	C.2	2	fragment2	0.0000
1931	C606     5.5610   -17.7990    -0.3110	C.3	2	fragment2	0.0000
1932	N173     6.9090   -18.4320    -0.1320	N.3	2	fragment2	0.0000
1933	O168     4.2830   -19.7210    -0.9520	O.2	2	fragment2	0.0000
1934	C607     5.4710   -17.2010    -1.7180	C.3	2	fragment2	0.0000
1935	C608     6.0220   -18.2040    -2.7370	C.3	2	fragment2	0.0000
1936	C609     7.3820   -17.7170    -3.2420	C.2	2	fragment2	0.0000
1937	O169     8.2910   -17.7100    -2.4270	O.2	2	fragment2	0.0000
1938	O170     7.4360   -17.3800    -4.4130	O.3	2	fragment2	0.0000
1939	H980     7.1890   -19.1620    -0.7220	H	2	fragment2	0.0000
1940	H981     5.4300   -17.0180     0.4130	H	2	fragment2	0.0000
1941	H982     4.4410   -16.9770    -1.9500	H	2	fragment2	0.0000
1942	H983     6.0480   -16.2880    -1.7600	H	2	fragment2	0.0000
1943	H984     6.1400   -19.1720    -2.2760	H	2	fragment2	0.0000
1944	H985     5.3420   -18.2870    -3.5720	H	2	fragment2	0.0000
1945	C610     1.2520   -19.0260     0.9660	C.2	2	fragment2	0.0000
1946	C611     2.6120   -19.6910     1.2120	C.3	2	fragment2	0.0000
1947	N174     3.7190   -18.7170     0.9480	N.3	2	fragment2	0.0000
1948	O171     1.1820   -17.8710     0.5960	O.2	2	fragment2	0.0000
1949	C612     2.6910   -20.1590     2.6670	C.3	2	fragment2	0.0000
1950	C613     3.7640   -21.2480     2.7950	C.3	2	fragment2	0.0000
1951	C614     5.1320   -20.6700     2.4190	C.3	2	fragment2	0.0000
1952	C615     3.8100   -21.7410     4.2430	C.3	2	fragment2	0.0000
1953	H986     3.8930   -17.9860     1.5790	H	2	fragment2	0.0000
1954	H987     2.7160   -20.5400     0.5610	H	2	fragment2	0.0000
1955	H988     2.9410   -19.3240     3.3050	H	2	fragment2	0.0000
1956	H989     1.7340   -20.5590     2.9690	H	2	fragment2	0.0000
1957	H990     3.5260   -22.0720     2.1390	H	2	fragment2	0.0000
1958	H991     5.1620   -19.6160     2.6530	H	2	fragment2	0.0000
1959	H992     5.9060   -21.1780     2.9750	H	2	fragment2	0.0000
1960	H993     5.3070   -20.8050     1.3630	H	2	fragment2	0.0000
1961	H994     2.8090   -21.9570     4.5860	H	2	fragment2	0.0000
1962	H995     4.4080   -22.6380     4.3040	H	2	fragment2	0.0000
1963	H996     4.2460   -20.9800     4.8730	H	2	fragment2	0.0000
1964	C616    -2.0750   -19.5930     2.1520	C.2	2	fragment2	0.0000
1965	C617    -1.1720   -19.2180     0.9700	C.3	2	fragment2	0.0000
1966	N175     0.2010   -19.7790     1.1780	N.3	2	fragment2	0.0000
1967	O172    -2.2980   -20.7580     2.4210	O.2	2	fragment2	0.0000
1968	C618    -1.7640   -19.7900    -0.3190	C.3	2	fragment2	0.0000
1969	S8    -0.7250   -19.7630    -1.8020	S.3	2	fragment2	0.0000
1970	H997     0.3120   -20.7080     1.4710	H	2	fragment2	0.0000
1971	H998    -1.1160   -18.1460     0.8920	H	2	fragment2	0.0000
1972	H999    -2.0410   -20.8170    -0.1340	H	2	fragment2	0.0000
1973	H1000    -2.6680   -19.2430    -0.5430	H	2	fragment2	0.0000
1974	C619    -4.9380   -18.7560     3.5910	C.2	2	fragment2	0.0000
1975	C620    -3.4660   -18.8740     4.0000	C.3	2	fragment2	0.0000
1976	N176    -2.5770   -18.5950     2.8310	N.3	2	fragment2	0.0000
1977	O173    -5.2490   -18.2570     2.5270	O.2	2	fragment2	0.0000
1978	C621    -3.1640   -17.8660     5.1070	C.3	2	fragment2	0.0000
1979	C622    -1.6490   -17.7470     5.2780	C.3	2	fragment2	0.0000
1980	C623    -1.3470   -16.8280     6.4640	C.3	2	fragment2	0.0000
1981	C624    -1.0620   -19.1330     5.5530	C.3	2	fragment2	0.0000
1982	H1001    -2.3730   -17.6720     2.5750	H	2	fragment2	0.0000
1983	H1002    -3.2750   -19.8690     4.3650	H	2	fragment2	0.0000
1984	H1003    -3.5760   -16.9020     4.8430	H	2	fragment2	0.0000
1985	H1004    -3.6090   -18.2000     6.0330	H	2	fragment2	0.0000
1986	H1005    -1.2110   -17.3370     4.3800	H	2	fragment2	0.0000
1987	H1006    -2.0140   -15.9790     6.4460	H	2	fragment2	0.0000
1988	H1007    -1.4850   -17.3690     7.3890	H	2	fragment2	0.0000
1989	H1008    -0.3270   -16.4800     6.4050	H	2	fragment2	0.0000
1990	H1009    -1.7340   -19.6940     6.1860	H	2	fragment2	0.0000
1991	H1010    -0.9260   -19.6630     4.6220	H	2	fragment2	0.0000
1992	H1011    -0.1080   -19.0330     6.0480	H	2	fragment2	0.0000
1993	C625    -8.0090   -18.3720     5.2860	C.2	2	fragment2	0.0000
1994	C626    -7.2750   -19.1500     4.1520	C.3	2	fragment2	0.0000
1995	N177    -5.8100   -19.2210     4.4540	N.3	2	fragment2	0.0000
1996	O174    -7.9500   -18.7810     6.4290	O.2	2	fragment2	0.0000
1997	C627    -7.8310   -20.5730     4.0980	C.3	2	fragment2	0.0000
1998	C628    -9.1250   -20.5820     3.2810	C.2	2	fragment2	0.0000
1999	O175    -9.9790   -19.7760     3.6110	O.2	2	fragment2	0.0000
2000	O176    -9.1850   -21.3940     2.3720	O.3	2	fragment2	0.0000
2001	H1012    -5.5030   -19.6150     5.2970	H	2	fragment2	0.0000
2002	H1013    -7.4160   -18.6860     3.2060	H	2	fragment2	0.0000
2003	H1014    -7.1130   -21.2290     3.6340	H	2	fragment2	0.0000
2004	H1015    -8.0390   -20.9230     5.0980	H	2	fragment2	0.0000
2005	C629   -10.4930   -17.3650     6.6500	C.2	2	fragment2	0.0000
2006	C630    -9.4040   -16.5010     6.0050	C.3	2	fragment2	0.0000
2007	N178    -8.6940   -17.2630     4.9670	N.3	2	fragment2	0.0000
2008	O177   -11.0880   -16.9870     7.6400	O.2	2	fragment2	0.0000
2009	C631   -10.0340   -15.3060     5.2790	C.3	2	fragment2	0.0000
2010	C632    -9.6960   -15.4490     3.7660	C.3	2	fragment2	0.0000
2011	C633    -8.8170   -16.7020     3.6040	C.3	2	fragment2	0.0000
2012	H1016    -8.7130   -16.1510     6.7490	H	2	fragment2	0.0000
2013	H1017   -11.1040   -15.3120     5.4200	H	2	fragment2	0.0000
2014	H1018    -9.6240   -14.3840     5.6630	H	2	fragment2	0.0000
2015	H1019   -10.6060   -15.5620     3.1950	H	2	fragment2	0.0000
2016	H1020    -9.1610   -14.5760     3.4230	H	2	fragment2	0.0000
2017	H1021    -9.2980   -17.4130     2.9470	H	2	fragment2	0.0000
2018	H1022    -7.8440   -16.4300     3.2210	H	2	fragment2	0.0000
2019	C634   -11.3670   -19.9320     8.0010	C.2	2	fragment2	0.0000
2020	C635   -11.7680   -19.4140     6.6150	C.3	2	fragment2	0.0000
2021	N179   -10.7260   -18.5090     6.0680	N.3	2	fragment2	0.0000
2022	O178   -12.1880   -20.4700     8.7180	O.2	2	fragment2	0.0000
2023	C636   -11.9490   -20.5960     5.6640	C.3	2	fragment2	0.0000
2024	C637   -12.9990   -21.5490     6.2410	C.3	2	fragment2	0.0000
2025	C638   -13.8460   -22.1120     5.0980	C.3	2	fragment2	0.0000
2026	C639   -14.8280   -23.1420     5.6620	C.3	2	fragment2	0.0000
2027	N180   -15.8410   -23.5130     4.6340	N.3	2	fragment2	0.0000
2028	H1023   -10.2240   -18.7670     5.2740	H	2	fragment2	0.0000
2029	H1024   -12.6920   -18.8780     6.6880	H	2	fragment2	0.0000
2030	H1025   -12.2760   -20.2380     4.6990	H	2	fragment2	0.0000
2031	H1026   -11.0100   -21.1170     5.5500	H	2	fragment2	0.0000
2032	H1027   -12.5080   -22.3580     6.7620	H	2	fragment2	0.0000
2033	H1028   -13.6320   -21.0150     6.9340	H	2	fragment2	0.0000
2034	H1029   -14.3930   -21.3110     4.6240	H	2	fragment2	0.0000
2035	H1030   -13.2050   -22.5830     4.3690	H	2	fragment2	0.0000
2036	H1031   -14.2890   -24.0280     5.9620	H	2	fragment2	0.0000
2037	H1032   -15.3330   -22.7280     6.5220	H	2	fragment2	0.0000
2038	H1033   -16.1590   -22.6570     4.1350	H	2	fragment2	0.0000
2039	H1034   -15.4170   -24.1740     3.9520	H	2	fragment2	0.0000
2040	H1035   -16.6550   -23.9660     5.0970	H	2	fragment2	0.0000
2041	C640    -9.5090   -19.0680    10.6620	C.2	2	fragment2	0.0000
2042	C641    -9.6530   -20.2450     9.6890	C.3	2	fragment2	0.0000
2043	N181   -10.1140   -19.7570     8.3510	N.3	2	fragment2	0.0000
2044	O179    -8.9340   -18.0510    10.3340	O.2	2	fragment2	0.0000
2045	C642    -8.3120   -20.9570     9.5290	C.3	2	fragment2	0.0000
2046	C643    -8.3940   -21.9140     8.3380	C.3	2	fragment2	0.0000
2047	C644    -7.4690   -23.1080     8.5830	C.2	2	fragment2	0.0000
2048	O180    -7.8790   -23.9620     9.3510	O.2	2	fragment2	0.0000
2049	O181    -6.4040   -23.0980     7.9870	O.3	2	fragment2	0.0000
2050	H1036    -9.4850   -19.3040     7.7450	H	2	fragment2	0.0000
2051	H1037   -10.3730   -20.9400    10.0840	H	2	fragment2	0.0000
2052	H1038    -7.5310   -20.2340     9.3590	H	2	fragment2	0.0000
2053	H1039    -8.0920   -21.5130    10.4240	H	2	fragment2	0.0000
2054	H1040    -9.4080   -22.2670     8.2210	H	2	fragment2	0.0000
2055	H1041    -8.0880   -21.4040     7.4370	H	2	fragment2	0.0000
2056	C645    -8.5120   -17.8220    13.2320	C.2	2	fragment2	0.0000
2057	C646    -9.9640   -18.1390    12.8490	C.3	2	fragment2	0.0000
2058	N182   -10.0350   -19.2390    11.8410	N.3	2	fragment2	0.0000
2059	O182    -8.1540   -16.6710    13.3840	O.2	2	fragment2	0.0000
2060	C647   -10.7360   -18.5620    14.0970	C.3	2	fragment2	0.0000
2061	C648   -10.8420   -17.3730    15.0550	C.2	2	fragment2	0.0000
2062	O183   -11.3050   -16.3100    14.6920	O.2	2	fragment2	0.0000
2063	N183   -10.4250   -17.5100    16.2840	N.3	2	fragment2	0.0000
2064	H1042   -10.4760   -20.0850    12.0660	H	2	fragment2	0.0000
2065	H1043   -10.4220   -17.2540    12.4380	H	2	fragment2	0.0000
2066	H1044   -11.7280   -18.8880    13.8220	H	2	fragment2	0.0000
2067	H1045   -10.2190   -19.3720    14.5900	H	2	fragment2	0.0000
2068	H1046   -10.0500   -18.3650    16.5810	H	2	fragment2	0.0000
2069	H1047   -10.4860   -16.7580    16.9090	H	2	fragment2	0.0000
2070	C649    -5.5730   -17.7430    12.6970	C.2	2	fragment2	0.0000
2071	C650    -6.2840   -18.5670    13.7720	C.3	2	fragment2	0.0000
2072	N184    -7.7010   -18.8370    13.3810	N.3	2	fragment2	0.0000
2073	O184    -4.6330   -17.0360    12.9860	O.2	2	fragment2	0.0000
2074	C651    -5.5360   -19.8880    14.0080	C.3	2	fragment2	0.0000
2075	C652    -5.5550   -20.7590    12.7440	C.2	2	fragment2	0.0000
2076	C653    -6.4340   -21.7320    12.5230	C.2	2	fragment2	0.0000
2077	C654    -4.6670   -20.7000    11.7650	C.2	2	fragment2	0.0000
2078	C655    -4.9220   -21.6740    10.8130	C.2	2	fragment2	0.0000
2079	C656    -3.5930   -19.8420    11.5910	C.2	2	fragment2	0.0000
2080	C657    -4.1120   -21.7910     9.7020	C.2	2	fragment2	0.0000
2081	C658    -2.7860   -19.9610    10.4750	C.2	2	fragment2	0.0000
2082	C659    -3.0450   -20.9350     9.5330	C.2	2	fragment2	0.0000
2083	N185    -6.0330   -22.2670    11.3590	N.3	2	fragment2	0.0000
2084	H1048    -8.0160   -19.7540    13.2380	H	2	fragment2	0.0000
2085	H1049    -6.2850   -18.0040    14.6910	H	2	fragment2	0.0000
2086	H1050    -4.5130   -19.6800    14.2790	H	2	fragment2	0.0000
2087	H1051    -6.0090   -20.4290    14.8140	H	2	fragment2	0.0000
2088	H1052    -7.2720   -22.0260    13.1380	H	2	fragment2	0.0000
2089	H1053    -6.5020   -23.0110    10.9290	H	2	fragment2	0.0000
2090	H1054    -3.3810   -19.0840    12.3280	H	2	fragment2	0.0000
2091	H1055    -4.3140   -22.5550     8.9650	H	2	fragment2	0.0000
2092	H1056    -1.9490   -19.2910    10.3410	H	2	fragment2	0.0000
2093	H1057    -2.4120   -21.0270     8.6630	H	2	fragment2	0.0000
2094	C660    -5.6720   -15.5660    10.6070	C.2	2	fragment2	0.0000
2095	C661    -5.3740   -17.0470    10.4010	C.3	2	fragment2	0.0000
2096	N186    -6.0340   -17.8370    11.4830	N.3	2	fragment2	0.0000
2097	O185    -4.8330   -14.7190    10.3720	O.2	2	fragment2	0.0000
2098	C662    -5.9150   -17.5020     9.0370	C.3	2	fragment2	0.0000
2099	C663    -5.8030   -16.3590     8.0260	C.3	2	fragment2	0.0000
2100	C664    -5.1000   -18.6920     8.5400	C.3	2	fragment2	0.0000
2101	H1058    -6.8070   -18.4060    11.2860	H	2	fragment2	0.0000
2102	H1059    -4.3070   -17.2030    10.4440	H	2	fragment2	0.0000
2103	H1060    -6.9480   -17.7920     9.1360	H	2	fragment2	0.0000
2104	H1061    -4.8580   -15.8540     8.1480	H	2	fragment2	0.0000
2105	H1062    -5.8670   -16.7540     7.0230	H	2	fragment2	0.0000
2106	H1063    -6.6080   -15.6540     8.1800	H	2	fragment2	0.0000
2107	H1064    -4.0560   -18.4220     8.4720	H	2	fragment2	0.0000
2108	H1065    -5.2110   -19.5130     9.2250	H	2	fragment2	0.0000
2109	H1066    -5.4520   -18.9950     7.5640	H	2	fragment2	0.0000
2110	C665    -6.4510   -13.3270    12.4770	C.2	2	fragment2	0.0000
2111	C666    -7.2390   -13.8740    11.2860	C.3	2	fragment2	0.0000
2112	N187    -6.8630   -15.2890    11.0440	N.3	2	fragment2	0.0000
2113	O186    -6.3100   -12.1370    12.6330	O.2	2	fragment2	0.0000
2114	C667    -8.7350   -13.8050    11.5920	C.3	2	fragment2	0.0000
2115	C668    -9.2360   -12.3800    11.3510	C.3	2	fragment2	0.0000
2116	C669    -9.6620   -12.2330     9.8890	C.2	2	fragment2	0.0000
2117	O187    -9.1290   -11.4270     9.1530	O.2	2	fragment2	0.0000
2118	N188   -10.6190   -12.9920     9.4290	N.3	2	fragment2	0.0000
2119	H1067    -7.5070   -16.0080    11.2130	H	2	fragment2	0.0000
2120	H1068    -7.0240   -13.2870    10.4100	H	2	fragment2	0.0000
2121	H1069    -9.2690   -14.4930    10.9520	H	2	fragment2	0.0000
2122	H1070    -8.9060   -14.0790    12.6230	H	2	fragment2	0.0000
2123	H1071   -10.0810   -12.1760    11.9910	H	2	fragment2	0.0000
2124	H1072    -8.4470   -11.6730    11.5650	H	2	fragment2	0.0000
2125	H1073   -11.0540   -13.6430    10.0180	H	2	fragment2	0.0000
2126	H1074   -10.9040   -12.9100     8.4950	H	2	fragment2	0.0000
2127	C670    -3.6920   -13.5660    14.1580	C.2	2	fragment2	0.0000
2128	C671    -5.1800   -13.7630    14.4840	C.3	2	fragment2	0.0000
2129	N189    -5.9430   -14.2160    13.2860	N.3	2	fragment2	0.0000
2130	O188    -3.1620   -12.4870    14.3330	O.2	2	fragment2	0.0000
2131	C672    -5.3240   -14.8090    15.5880	C.3	2	fragment2	0.0000
2132	C673    -5.0280   -14.1570    16.9400	C.3	2	fragment2	0.0000
2133	C674    -4.5890   -15.2360    17.9310	C.3	2	fragment2	0.0000
2134	C675    -5.4540   -14.2780    19.9720	C.2	2	fragment2	0.0000
2135	N190    -4.4050   -14.6150    19.2720	N.3	2	fragment2	0.0000
2136	N191    -6.2130   -15.2200    20.4620	N.3	2	fragment2	0.0000
2137	N192    -5.7080   -13.0120    20.1580	N.2	2	fragment2	0.0000
2138	H1075    -6.0640   -15.1710    13.1100	H	2	fragment2	0.0000
2139	H1076    -5.5910   -12.8300    14.8290	H	2	fragment2	0.0000
2140	H1077    -6.3300   -15.2010    15.5860	H	2	fragment2	0.0000
2141	H1078    -4.6290   -15.6170    15.4150	H	2	fragment2	0.0000
2142	H1079    -4.2410   -13.4270    16.8260	H	2	fragment2	0.0000
2143	H1080    -5.9170   -13.6660    17.3080	H	2	fragment2	0.0000
2144	H1081    -5.3430   -16.0070    17.9940	H	2	fragment2	0.0000
2145	H1082    -3.6560   -15.6740    17.6080	H	2	fragment2	0.0000
2146	H1083    -3.5040   -14.4600    19.6260	H	2	fragment2	0.0000
2147	H1084    -5.9870   -16.1800    20.2990	H	2	fragment2	0.0000
2148	H1085    -7.0210   -14.9800    21.0010	H	2	fragment2	0.0000
2149	H1086    -5.1040   -12.3180    19.7670	H	2	fragment2	0.0000
2150	H1087    -6.5080   -12.7360    20.6910	H	2	fragment2	0.0000
2151	C676    -1.3970   -13.3350    12.3550	C.2	2	fragment2	0.0000
2152	C677    -1.5980   -14.4610    13.3750	C.3	2	fragment2	0.0000
2153	N193    -3.0440   -14.6020    13.6900	N.3	2	fragment2	0.0000
2154	O189    -0.3750   -12.6760    12.3420	O.2	2	fragment2	0.0000
2155	C678    -1.0780   -15.7890    12.8180	C.3	2	fragment2	0.0000
2156	C679    -1.4430   -16.9170    13.7870	C.3	2	fragment2	0.0000
2157	C680    -1.7280   -16.0510    11.4550	C.3	2	fragment2	0.0000
2158	H1088    -3.5040   -15.4550    13.5300	H	2	fragment2	0.0000
2159	H1089    -1.0620   -14.2180    14.2770	H	2	fragment2	0.0000
2160	H1090    -0.0110   -15.7460    12.7120	H	2	fragment2	0.0000
2161	H1091    -2.5080   -16.9410    13.9350	H	2	fragment2	0.0000
2162	H1092    -1.1180   -17.8650    13.3840	H	2	fragment2	0.0000
2163	H1093    -0.9570   -16.7520    14.7370	H	2	fragment2	0.0000
2164	H1094    -2.7170   -15.6180    11.4350	H	2	fragment2	0.0000
2165	H1095    -1.1290   -15.6050    10.6750	H	2	fragment2	0.0000
2166	H1096    -1.8030   -17.1130    11.2820	H	2	fragment2	0.0000
2167	C681    -2.4980   -10.6900    11.1950	C.2	2	fragment2	0.0000
2168	C682    -2.2630   -12.0410    10.5170	C.3	2	fragment2	0.0000
2169	N194    -2.3810   -13.1310    11.5250	N.3	2	fragment2	0.0000
2170	O190    -1.7490    -9.7540    10.9940	O.2	2	fragment2	0.0000
2171	C683    -3.2980   -12.2540     9.4150	C.3	2	fragment2	0.0000
2172	C684    -3.3790   -10.9940     8.5510	C.3	2	fragment2	0.0000
2173	C685    -2.8680   -13.4350     8.5420	C.3	2	fragment2	0.0000
2174	H1097    -3.1870   -13.6860    11.5640	H	2	fragment2	0.0000
2175	H1098    -1.2720   -12.0570    10.0870	H	2	fragment2	0.0000
2176	H1099    -4.2640   -12.4580     9.8550	H	2	fragment2	0.0000
2177	H1100    -2.3880   -10.5910     8.4020	H	2	fragment2	0.0000
2178	H1101    -3.8100   -11.2370     7.5910	H	2	fragment2	0.0000
2179	H1102    -3.9940   -10.2550     9.0410	H	2	fragment2	0.0000
2180	H1103    -2.6240   -14.2810     9.1670	H	2	fragment2	0.0000
2181	H1104    -3.6720   -13.7070     7.8740	H	2	fragment2	0.0000
2182	H1105    -2.0010   -13.1610     7.9600	H	2	fragment2	0.0000
2183	C686    -2.5780    -8.9140    13.4930	C.2	2	fragment2	0.0000
2184	C687    -3.8110    -9.3260    12.6950	C.3	2	fragment2	0.0000
2185	N195    -3.5370   -10.6110    11.9900	N.3	2	fragment2	0.0000
2186	O191    -2.2730    -7.7440    13.6110	O.2	2	fragment2	0.0000
2187	C688    -4.9950    -9.5050    13.6460	C.3	2	fragment2	0.0000
2188	C689    -5.3970    -8.1410    14.2140	C.3	2	fragment2	0.0000
2189	C690    -6.7350    -7.7160    13.6070	C.2	2	fragment2	0.0000
2190	O192    -6.7440    -7.5160    12.4030	O.2	2	fragment2	0.0000
2191	O193    -7.6730    -7.6150    14.3800	O.3	2	fragment2	0.0000
2192	H1106    -4.1280   -11.3860    12.1180	H	2	fragment2	0.0000
2193	H1107    -4.0430    -8.5620    11.9720	H	2	fragment2	0.0000
2194	H1108    -5.8260    -9.9310    13.1140	H	2	fragment2	0.0000
2195	H1109    -4.7150   -10.1660    14.4530	H	2	fragment2	0.0000
2196	H1110    -5.4970    -8.2060    15.2870	H	2	fragment2	0.0000
2197	H1111    -4.6450    -7.4050    13.9700	H	2	fragment2	0.0000
2198	C691     0.3830    -8.9430    13.8980	C.2	2	fragment2	0.0000
2199	C692    -0.6720    -9.5680    14.8130	C.3	2	fragment2	0.0000
2200	N196    -1.8910    -9.8890    14.0260	N.3	2	fragment2	0.0000
2201	O194     0.9970    -7.9530    14.2410	O.2	2	fragment2	0.0000
2202	C693    -0.1260   -10.8480    15.4350	C.3	2	fragment2	0.0000
2203	C694    -0.5620   -10.9200    16.9000	C.3	2	fragment2	0.0000
2204	C695    -0.2810   -12.3240    17.4380	C.3	2	fragment2	0.0000
2205	C696    -0.6090   -12.3630    18.9330	C.3	2	fragment2	0.0000
2206	N197    -2.0140   -11.9260    19.1700	N.3	2	fragment2	0.0000
2207	H1112    -2.1740   -10.8230    13.9070	H	2	fragment2	0.0000
2208	H1113    -0.9250    -8.8710    15.5950	H	2	fragment2	0.0000
2209	H1114    -0.5090   -11.7030    14.9000	H	2	fragment2	0.0000
2210	H1115     0.9510   -10.8460    15.3770	H	2	fragment2	0.0000
2211	H1116    -0.0130   -10.1930    17.4780	H	2	fragment2	0.0000
2212	H1117    -1.6190   -10.7070    16.9740	H	2	fragment2	0.0000
2213	H1118    -0.8930   -13.0430    16.9140	H	2	fragment2	0.0000
2214	H1119     0.7600   -12.5690    17.2890	H	2	fragment2	0.0000
2215	H1120    -0.4850   -13.3690    19.3050	H	2	fragment2	0.0000
2216	H1121     0.0600   -11.7050    19.4670	H	2	fragment2	0.0000
2217	H1122    -2.5970   -12.1680    18.3440	H	2	fragment2	0.0000
2218	H1123    -2.3890   -12.4080    20.0120	H	2	fragment2	0.0000
2219	H1124    -2.0370   -10.8970    19.3210	H	2	fragment2	0.0000
2220	C697     1.2980    -7.4870    11.5610	C.2	2	fragment2	0.0000
2221	C698     1.5800    -8.9710    11.8000	C.3	2	fragment2	0.0000
2222	N198     0.5740    -9.5360    12.7460	N.3	2	fragment2	0.0000
2223	O195     2.1980    -6.6730    11.5640	O.2	2	fragment2	0.0000
2224	C699     1.5090    -9.7100    10.4760	C.3	2	fragment2	0.0000
2225	C700     2.4590    -9.0350     9.4780	C.2	2	fragment2	0.0000
2226	C701     3.8330    -9.0900     9.6620	C.2	2	fragment2	0.0000
2227	C702     1.9580    -8.3580     8.3780	C.2	2	fragment2	0.0000
2228	C703     4.6850    -8.4770     8.7640	C.2	2	fragment2	0.0000
2229	C704     2.8130    -7.7470     7.4820	C.2	2	fragment2	0.0000
2230	C705     4.1750    -7.8060     7.6760	C.2	2	fragment2	0.0000
2231	H1125     0.0650   -10.3440    12.5090	H	2	fragment2	0.0000
2232	H1126     2.5550    -9.0850    12.2110	H	2	fragment2	0.0000
2233	H1127     1.7970   -10.7430    10.6100	H	2	fragment2	0.0000
2234	H1128     0.5110    -9.6670    10.1000	H	2	fragment2	0.0000
2235	H1129     4.2400    -9.6170    10.5110	H	2	fragment2	0.0000
2236	H1130     0.8900    -8.3080     8.2200	H	2	fragment2	0.0000
2237	H1131     5.7530    -8.5240     8.9160	H	2	fragment2	0.0000
2238	H1132     2.4130    -7.2240     6.6270	H	2	fragment2	0.0000
2239	H1133     4.8450    -7.3180     6.9780	H	2	fragment2	0.0000
2240	C706     0.0100    -4.9000    12.3550	C.2	2	fragment2	0.0000
2241	C707    -0.3140    -5.7400    11.1170	C.3	2	fragment2	0.0000
2242	N199     0.0480    -7.1670    11.3580	N.3	2	fragment2	0.0000
2243	O196     0.5790    -3.8310    12.2520	O.2	2	fragment2	0.0000
2244	C708    -1.8090    -5.6470    10.8150	C.3	2	fragment2	0.0000
2245	C709    -2.0340    -5.8680     9.3180	C.3	2	fragment2	0.0000
2246	C710    -3.4320    -6.4510     9.0990	C.3	2	fragment2	0.0000
2247	C711    -1.9280    -4.5260     8.5890	C.3	2	fragment2	0.0000
2248	H1134    -0.6470    -7.8590    11.3640	H	2	fragment2	0.0000
2249	H1135     0.2430    -5.3670    10.2750	H	2	fragment2	0.0000
2250	H1136    -2.3410    -6.4010    11.3770	H	2	fragment2	0.0000
2251	H1137    -2.1760    -4.6710    11.0970	H	2	fragment2	0.0000
2252	H1138    -1.2900    -6.5500     8.9340	H	2	fragment2	0.0000
2253	H1139    -4.1560    -5.8820     9.6630	H	2	fragment2	0.0000
2254	H1140    -3.6850    -6.4070     8.0500	H	2	fragment2	0.0000
2255	H1141    -3.4530    -7.4790     9.4270	H	2	fragment2	0.0000
2256	H1142    -1.2060    -3.8970     9.0880	H	2	fragment2	0.0000
2257	H1143    -1.6140    -4.6890     7.5690	H	2	fragment2	0.0000
2258	H1144    -2.8900    -4.0340     8.5910	H	2	fragment2	0.0000
2259	C712     1.4250    -4.4120    14.9060	C.2	2	fragment2	0.0000
2260	C713    -0.0820    -4.6460    14.7560	C.3	2	fragment2	0.0000
2261	N200    -0.3610    -5.4020    13.5010	N.3	2	fragment2	0.0000
2262	O197     1.8490    -3.4120    15.4500	O.2	2	fragment2	0.0000
2263	C714    -0.5950    -5.4510    15.9490	C.3	2	fragment2	0.0000
2264	C715    -2.1240    -5.4820    15.9120	C.3	2	fragment2	0.0000
2265	C716    -2.6710    -4.5140    16.9630	C.3	2	fragment2	0.0000
2266	C717    -4.2000    -4.5170    16.9000	C.3	2	fragment2	0.0000
2267	N201    -4.7150    -3.1370    16.6730	N.3	2	fragment2	0.0000
2268	H1145    -0.8190    -6.2670    13.5370	H	2	fragment2	0.0000
2269	H1146    -0.5890    -3.6970    14.7220	H	2	fragment2	0.0000
2270	H1147    -0.2100    -6.4590    15.8990	H	2	fragment2	0.0000
2271	H1148    -0.2640    -4.9900    16.8670	H	2	fragment2	0.0000
2272	H1149    -2.4700    -5.1860    14.9320	H	2	fragment2	0.0000
2273	H1150    -2.4720    -6.4820    16.1230	H	2	fragment2	0.0000
2274	H1151    -2.3480    -4.8250    17.9450	H	2	fragment2	0.0000
2275	H1152    -2.3020    -3.5190    16.7670	H	2	fragment2	0.0000
2276	H1153    -4.5280    -5.1530    16.0910	H	2	fragment2	0.0000
2277	H1154    -4.6000    -4.8940    17.8300	H	2	fragment2	0.0000
2278	H1155    -4.0730    -2.4500    17.1190	H	2	fragment2	0.0000
2279	H1156    -4.7670    -2.9500    15.6510	H	2	fragment2	0.0000
2280	H1157    -5.6630    -3.0470    17.0900	H	2	fragment2	0.0000
2281	C718     4.1960    -4.2610    13.4190	C.2	2	fragment2	0.0000
2282	C719     3.6810    -5.1890    14.5240	C.3	2	fragment2	0.0000
2283	N202     2.2010    -5.3420    14.4190	N.3	2	fragment2	0.0000
2284	O198     5.0330    -3.4130    13.6560	O.2	2	fragment2	0.0000
2285	C720     4.3370    -6.5610    14.3840	C.3	2	fragment2	0.0000
2286	C721     5.6270    -6.5860    15.2070	C.3	2	fragment2	0.0000
2287	C722     5.2910    -6.9410    16.6570	C.3	2	fragment2	0.0000
2288	C723     5.8110    -5.4300    18.4690	C.2	2	fragment2	0.0000
2289	N203     6.2570    -6.2540    17.5600	N.3	2	fragment2	0.0000
2290	N204     4.8430    -5.8200    19.2530	N.3	2	fragment2	0.0000
2291	N205     6.3470    -4.2440    18.5630	N.2	2	fragment2	0.0000
2292	H1158     1.8160    -6.1340    13.9900	H	2	fragment2	0.0000
2293	H1159     3.9290    -4.7720    15.4840	H	2	fragment2	0.0000
2294	H1160     3.6620    -7.3240    14.7430	H	2	fragment2	0.0000
2295	H1161     4.5650    -6.7500    13.3460	H	2	fragment2	0.0000
2296	H1162     6.3020    -7.3240    14.8000	H	2	fragment2	0.0000
2297	H1163     6.0990    -5.6160    15.1710	H	2	fragment2	0.0000
2298	H1164     4.2880    -6.6160    16.8930	H	2	fragment2	0.0000
2299	H1165     5.3640    -8.0090    16.8010	H	2	fragment2	0.0000
2300	H1166     7.2190    -6.4190    17.4720	H	2	fragment2	0.0000
2301	H1167     4.4560    -6.7370    19.1520	H	2	fragment2	0.0000
2302	H1168     4.4890    -5.2030    19.9560	H	2	fragment2	0.0000
2303	H1169     7.0870    -3.9800    17.9450	H	2	fragment2	0.0000
2304	H1170     6.0180    -3.6000    19.2540	H	2	fragment2	0.0000
2305	C724     3.6630    -2.1350    11.3240	C.2	2	fragment2	0.0000
2306	C725     4.1280    -3.5790    11.1010	C.3	2	fragment2	0.0000
2307	N206     3.6810    -4.4410    12.2330	N.3	2	fragment2	0.0000
2308	O199     4.2620    -1.2030    10.8250	O.2	2	fragment2	0.0000
2309	C726     3.5300    -4.1130     9.7990	C.3	2	fragment2	0.0000
2310	H1171     3.0070    -5.1360    12.0880	H	2	fragment2	0.0000
2311	H1172     5.2020    -3.6020    11.0350	H	2	fragment2	0.0000
2312	H1173     2.5830    -4.5920    10.0010	H	2	fragment2	0.0000
2313	H1174     3.3760    -3.2990     9.1070	H	2	fragment2	0.0000
2314	H1175     4.2030    -4.8320     9.3570	H	2	fragment2	0.0000
2315	C727     2.8490     0.0220    13.5080	C.2	2	fragment2	0.0000
2316	C728     2.0850    -0.6120    12.3400	C.3	2	fragment2	0.0000
2317	N207     2.6040    -1.9840    12.0710	N.3	2	fragment2	0.0000
2318	O200     3.1720     1.1930    13.4790	O.2	2	fragment2	0.0000
2319	C729     0.6000    -0.6980    12.6890	C.3	2	fragment2	0.0000
2320	C730    -0.0050     0.7070    12.6570	C.3	2	fragment2	0.0000
2321	C731    -1.3630     0.6890    13.3630	C.2	2	fragment2	0.0000
2322	O201    -1.3710     0.2700    14.5090	O.2	2	fragment2	0.0000
2323	O202    -2.3140     1.0950    12.7170	O.3	2	fragment2	0.0000
2324	H1176     2.1530    -2.7650    12.4510	H	2	fragment2	0.0000
2325	H1177     2.2090    -0.0060    11.4610	H	2	fragment2	0.0000
2326	H1178     0.0950    -1.3280    11.9720	H	2	fragment2	0.0000
2327	H1179     0.4840    -1.1210    13.6760	H	2	fragment2	0.0000
2328	H1180     0.6510     1.4000    13.1620	H	2	fragment2	0.0000
2329	H1181    -0.1400     1.0240    11.6330	H	2	fragment2	0.0000
2330	C732     5.2860     0.1670    15.2800	C.2	2	fragment2	0.0000
2331	C733     3.8630    -0.2270    15.6880	C.3	2	fragment2	0.0000
2332	N208     3.1210    -0.7680    14.5110	N.3	2	fragment2	0.0000
2333	O203     5.8690     1.0710    15.8470	O.2	2	fragment2	0.0000
2334	C734     3.9230    -1.2990    16.7760	C.3	2	fragment2	0.0000
2335	C735     4.9870    -0.9150    17.8060	C.2	2	fragment2	0.0000
2336	O204     6.1540    -1.2160    17.6500	O.2	2	fragment2	0.0000
2337	N209     4.6280    -0.2520    18.8710	N.3	2	fragment2	0.0000
2338	H1182     2.8410    -1.7070    14.4910	H	2	fragment2	0.0000
2339	H1183     3.3470     0.6370    16.0690	H	2	fragment2	0.0000
2340	H1184     2.9640    -1.3770    17.2660	H	2	fragment2	0.0000
2341	H1185     4.1780    -2.2520    16.3370	H	2	fragment2	0.0000
2342	H1186     3.6880    -0.0070    19.0010	H	2	fragment2	0.0000
2343	H1187     5.2980     0.0010    19.5390	H	2	fragment2	0.0000
2344	C736     7.2500     1.2260    13.2830	C.2	2	fragment2	0.0000
2345	C737     7.1980    -0.1980    13.8470	C.3	2	fragment2	0.0000
2346	N210     5.8150    -0.5200    14.3050	N.3	2	fragment2	0.0000
2347	O205     6.2290     1.6370    12.7570	O.2	2	fragment2	0.0000
2348	C738     7.6100    -1.1920    12.7630	C.3	2	fragment2	0.0000
2349	O206     7.9740    -2.3600    13.4830	O.3	2	fragment2	0.0000
2350	H1188     5.3070    -1.2410    13.8770	H	2	fragment2	0.0000
2351	H1189     7.8770    -0.2770    14.6790	H	2	fragment2	0.0000
2352	H1190     6.7820    -1.4030    12.1020	H	2	fragment2	0.0000
2353	H1191     8.4550    -0.8200    12.2030	H	2	fragment2	0.0000
2354	H1192     8.8290    -2.2040    13.8900	H	2	fragment2	0.0000
@<TRIPOS>BOND
1	1	4	2
2	1	2	1
3	2	5	1
4	2	3	1
5	2	6	1
6	5	7	1
7	5	8	1
8	5	9	1
9	10	13	2
10	10	11	1
11	11	14	1
12	11	12	1
13	11	20	1
14	12	19	1
15	14	15	1
16	14	21	1
17	14	22	1
18	15	16	1
19	15	23	1
20	15	24	1
21	16	17	1
22	16	25	1
23	16	26	1
24	17	18	1
25	17	27	1
26	17	28	1
27	18	29	1
28	18	30	1
29	18	31	1
30	32	35	2
31	32	33	1
32	33	36	1
33	33	34	1
34	33	42	1
35	34	41	1
36	36	37	1
37	36	43	1
38	36	44	1
39	37	38	1
40	37	45	1
41	37	46	1
42	38	39	2
43	38	40	1
44	47	50	2
45	47	48	1
46	48	51	1
47	48	49	1
48	48	56	1
49	49	55	1
50	51	52	1
51	51	57	1
52	51	58	1
53	52	53	1
54	52	54	1
55	52	59	1
56	53	60	1
57	53	61	1
58	53	62	1
59	54	63	1
60	54	64	1
61	54	65	1
62	66	69	2
63	66	67	1
64	67	70	1
65	67	68	1
66	67	78	1
67	68	77	1
68	70	71	1
69	70	79	1
70	70	80	1
71	71	72	1
72	71	81	1
73	71	82	1
74	72	74	1
75	72	83	1
76	72	84	1
77	73	74	1
78	73	75	1
79	73	76	2
80	74	85	1
81	75	86	1
82	75	87	1
83	76	88	1
84	76	89	1
85	90	93	2
86	90	91	1
87	91	94	1
88	91	92	1
89	91	97	1
90	92	96	1
91	94	95	1
92	94	98	1
93	94	99	1
94	100	103	2
95	100	101	1
96	101	104	1
97	101	102	1
98	101	110	1
99	102	109	1
100	104	105	1
101	104	111	1
102	104	112	1
103	105	106	1
104	105	113	1
105	105	114	1
106	106	107	2
107	106	108	1
108	108	115	1
109	108	116	1
110	117	120	2
111	117	118	1
112	118	121	1
113	118	119	1
114	118	124	1
115	119	123	1
116	121	122	1
117	121	125	1
118	121	126	1
119	127	130	2
120	127	128	1
121	128	131	1
122	128	129	1
123	128	136	1
124	129	135	1
125	131	132	1
126	131	133	1
127	131	137	1
128	132	134	1
129	132	138	1
130	132	139	1
131	133	140	1
132	133	141	1
133	133	142	1
134	134	143	1
135	134	144	1
136	134	145	1
137	146	149	2
138	146	147	1
139	147	150	1
140	147	148	1
141	147	156	1
142	148	155	1
143	150	151	1
144	150	157	1
145	150	158	1
146	151	152	1
147	151	159	1
148	151	160	1
149	152	153	1
150	152	161	1
151	152	162	1
152	153	154	1
153	153	163	1
154	153	164	1
155	154	165	1
156	154	166	1
157	154	167	1
158	168	171	2
159	168	169	1
160	169	172	1
161	169	170	1
162	169	176	1
163	170	175	1
164	172	173	1
165	172	174	1
166	172	177	1
167	173	179	1
168	173	180	1
169	173	181	1
170	174	178	1
171	182	185	2
172	182	183	1
173	183	186	1
174	183	184	1
175	183	195	1
176	184	194	1
177	186	187	1
178	186	196	1
179	186	197	1
180	187	188	1
181	187	189	2
182	188	190	2
183	188	198	1
184	189	191	1
185	189	199	1
186	190	192	1
187	190	200	1
188	191	192	2
189	191	201	1
190	192	193	1
191	193	202	1
192	203	206	2
193	203	204	1
194	204	207	1
195	204	205	1
196	204	210	1
197	205	209	1
198	207	208	1
199	207	211	1
200	207	212	1
201	208	213	1
202	214	217	2
203	214	215	1
204	215	218	1
205	215	216	1
206	215	224	1
207	216	223	1
208	218	219	1
209	218	225	1
210	218	226	1
211	219	220	1
212	219	227	1
213	219	228	1
214	220	221	1
215	220	229	1
216	220	230	1
217	221	222	1
218	221	231	1
219	221	232	1
220	222	233	1
221	222	234	1
222	222	235	1
223	236	239	2
224	236	237	1
225	237	240	1
226	237	238	1
227	237	243	1
228	240	241	1
229	240	244	1
230	240	245	1
231	241	242	1
232	241	246	1
233	241	247	1
234	242	238	1
235	242	248	1
236	242	249	1
237	250	253	2
238	250	251	1
239	251	254	1
240	251	252	1
241	251	262	1
242	252	261	1
243	254	255	1
244	254	263	1
245	254	264	1
246	255	256	1
247	255	257	2
248	256	258	2
249	256	265	1
250	257	259	1
251	257	266	1
252	258	260	1
253	258	267	1
254	259	260	2
255	259	268	1
256	260	269	1
257	270	273	2
258	270	271	1
259	271	274	1
260	271	272	1
261	271	281	1
262	272	280	1
263	274	275	1
264	274	282	1
265	274	283	1
266	275	276	1
267	275	278	2
268	276	277	2
269	277	279	1
270	277	285	1
271	278	279	1
272	278	284	1
273	279	286	1
274	287	290	2
275	287	288	1
276	288	291	1
277	288	289	1
278	288	294	1
279	291	292	1
280	291	295	1
281	291	296	1
282	292	293	1
283	292	297	1
284	292	298	1
285	293	289	1
286	293	299	1
287	293	300	1
288	301	304	2
289	301	302	1
290	302	305	1
291	302	303	1
292	302	311	1
293	303	310	1
294	305	306	1
295	305	312	1
296	305	313	1
297	306	307	1
298	306	314	1
299	306	315	1
300	307	308	1
301	307	316	1
302	307	317	1
303	308	309	1
304	308	318	1
305	308	319	1
306	309	320	1
307	309	321	1
308	309	322	1
309	323	326	2
310	323	324	1
311	324	327	1
312	324	325	1
313	324	335	1
314	325	334	1
315	327	328	1
316	327	336	1
317	327	337	1
318	328	329	1
319	328	330	2
320	329	331	2
321	329	338	1
322	330	332	1
323	330	339	1
324	331	333	1
325	331	340	1
326	332	333	2
327	332	341	1
328	333	342	1
329	343	346	2
330	343	344	1
331	344	347	1
332	344	345	1
333	344	352	1
334	345	351	1
335	347	348	1
336	347	349	1
337	347	353	1
338	348	350	1
339	348	354	1
340	348	355	1
341	349	356	1
342	349	357	1
343	349	358	1
344	350	359	1
345	350	360	1
346	350	361	1
347	362	365	2
348	362	363	1
349	363	366	1
350	363	364	1
351	363	372	1
352	364	371	1
353	366	367	1
354	366	373	1
355	366	374	1
356	367	368	1
357	367	375	1
358	367	376	1
359	368	369	1
360	368	377	1
361	368	378	1
362	369	370	1
363	369	379	1
364	369	380	1
365	370	381	1
366	370	382	1
367	370	383	1
368	384	387	2
369	384	385	1
370	385	388	1
371	385	386	1
372	385	394	1
373	386	393	1
374	388	389	1
375	388	395	1
376	388	396	1
377	389	390	1
378	389	397	1
379	389	398	1
380	390	391	2
381	390	392	1
382	399	402	2
383	399	400	1
384	400	403	1
385	400	401	1
386	400	408	1
387	401	407	1
388	403	404	1
389	403	409	1
390	403	410	1
391	404	405	1
392	404	406	1
393	404	411	1
394	405	412	1
395	405	413	1
396	405	414	1
397	406	415	1
398	406	416	1
399	406	417	1
400	418	421	2
401	418	419	1
402	419	422	1
403	419	420	1
404	419	430	1
405	420	429	1
406	422	423	1
407	422	431	1
408	422	432	1
409	423	424	1
410	423	433	1
411	423	434	1
412	424	426	1
413	424	435	1
414	424	436	1
415	425	426	1
416	425	427	1
417	425	428	2
418	426	437	1
419	427	438	1
420	427	439	1
421	428	440	1
422	428	441	1
423	442	445	2
424	442	443	1
425	443	446	1
426	443	444	1
427	443	450	1
428	444	449	1
429	446	447	1
430	446	448	1
431	446	451	1
432	447	452	1
433	447	453	1
434	447	454	1
435	448	455	1
436	448	456	1
437	448	457	1
438	458	461	2
439	458	459	1
440	459	462	1
441	459	460	1
442	459	467	1
443	460	466	1
444	462	463	1
445	462	464	1
446	462	468	1
447	463	465	1
448	463	469	1
449	463	470	1
450	464	471	1
451	464	472	1
452	464	473	1
453	465	474	1
454	465	475	1
455	465	476	1
456	477	480	2
457	477	478	1
458	478	481	1
459	478	479	1
460	478	487	1
461	479	486	1
462	481	482	1
463	481	488	1
464	481	489	1
465	482	483	1
466	482	490	1
467	482	491	1
468	483	484	2
469	483	485	1
470	492	495	2
471	492	493	1
472	493	496	1
473	493	494	1
474	493	499	1
475	494	498	1
476	496	497	1
477	496	500	1
478	496	501	1
479	497	502	1
480	503	506	2
481	503	504	1
482	504	505	1
483	504	508	1
484	504	509	1
485	505	507	1
486	510	513	2
487	510	511	1
488	511	514	1
489	511	512	1
490	511	517	1
491	514	515	1
492	514	518	1
493	514	519	1
494	515	516	1
495	515	520	1
496	515	521	1
497	516	512	1
498	516	522	1
499	516	523	1
500	524	527	2
501	524	525	1
502	525	528	1
503	525	526	1
504	525	535	1
505	526	534	1
506	528	529	1
507	528	536	1
508	528	537	1
509	529	530	1
510	529	532	2
511	530	531	2
512	530	538	1
513	531	533	1
514	531	540	1
515	532	533	1
516	532	539	1
517	541	544	2
518	541	542	1
519	542	545	1
520	542	543	1
521	542	548	1
522	543	547	1
523	545	546	1
524	545	549	1
525	545	550	1
526	551	554	2
527	551	552	1
528	552	555	1
529	552	553	1
530	552	557	1
531	553	556	1
532	555	558	1
533	555	559	1
534	555	560	1
535	561	564	2
536	561	562	1
537	562	565	1
538	562	563	1
539	562	570	1
540	563	569	1
541	565	566	1
542	565	571	1
543	565	572	1
544	566	567	2
545	566	568	1
546	568	573	1
547	568	574	1
548	575	578	2
549	575	576	1
550	576	579	1
551	576	577	1
552	576	583	1
553	577	582	1
554	579	580	1
555	579	581	1
556	579	584	1
557	580	586	1
558	580	587	1
559	580	588	1
560	581	585	1
561	589	592	2
562	589	590	1
563	590	593	1
564	590	591	1
565	590	599	1
566	591	598	1
567	593	594	1
568	593	600	1
569	593	601	1
570	594	595	1
571	594	602	1
572	594	603	1
573	595	596	2
574	595	597	1
575	604	607	2
576	604	605	1
577	605	608	1
578	605	606	1
579	605	613	1
580	606	612	1
581	608	609	1
582	608	610	1
583	608	614	1
584	609	611	1
585	609	615	1
586	609	616	1
587	610	617	1
588	610	618	1
589	610	619	1
590	611	620	1
591	611	621	1
592	611	622	1
593	623	626	2
594	623	624	1
595	624	627	1
596	624	625	1
597	624	632	1
598	625	631	1
599	627	628	1
600	627	629	1
601	627	633	1
602	628	630	1
603	628	634	1
604	628	635	1
605	629	636	1
606	629	637	1
607	629	638	1
608	630	639	1
609	630	640	1
610	630	641	1
611	642	645	2
612	642	643	1
613	643	646	1
614	643	644	1
615	643	650	1
616	644	649	1
617	646	647	1
618	646	648	1
619	646	651	1
620	647	652	1
621	647	653	1
622	647	654	1
623	648	655	1
624	648	656	1
625	648	657	1
626	658	661	2
627	658	659	1
628	659	662	1
629	659	660	1
630	659	668	1
631	660	667	1
632	662	663	1
633	662	669	1
634	662	670	1
635	663	664	1
636	663	671	1
637	663	672	1
638	664	665	1
639	664	673	1
640	664	674	1
641	665	666	1
642	665	675	1
643	665	676	1
644	666	677	1
645	666	678	1
646	666	679	1
647	680	683	2
648	680	681	1
649	681	684	1
650	681	682	1
651	681	689	1
652	682	688	1
653	684	685	1
654	684	690	1
655	684	691	1
656	685	686	1
657	685	687	1
658	685	692	1
659	686	693	1
660	686	694	1
661	686	695	1
662	687	696	1
663	687	697	1
664	687	698	1
665	699	702	2
666	699	700	1
667	700	703	1
668	700	701	1
669	700	706	1
670	701	705	1
671	703	704	1
672	703	707	1
673	703	708	1
674	704	709	1
675	710	713	2
676	710	711	1
677	711	714	1
678	711	712	1
679	711	719	1
680	712	718	1
681	714	715	1
682	714	720	1
683	714	721	1
684	715	716	2
685	715	717	1
686	722	725	2
687	722	723	1
688	723	724	1
689	723	727	1
690	723	728	1
691	724	726	1
692	729	732	2
693	729	730	1
694	730	733	1
695	730	731	1
696	730	741	1
697	731	740	1
698	733	734	1
699	733	742	1
700	733	743	1
701	734	735	1
702	734	744	1
703	734	745	1
704	735	737	1
705	735	746	1
706	735	747	1
707	736	737	1
708	736	738	1
709	736	739	2
710	737	748	1
711	738	749	1
712	738	750	1
713	739	751	1
714	739	752	1
715	753	756	2
716	753	754	1
717	754	757	1
718	754	755	1
719	754	763	1
720	755	762	1
721	757	758	1
722	757	764	1
723	757	765	1
724	758	759	1
725	758	766	1
726	758	767	1
727	759	760	2
728	759	761	1
729	768	771	2
730	768	769	1
731	769	772	1
732	769	770	1
733	769	777	1
734	770	776	1
735	772	773	1
736	772	778	1
737	772	779	1
738	773	774	1
739	773	775	1
740	773	780	1
741	774	781	1
742	774	782	1
743	774	783	1
744	775	784	1
745	775	785	1
746	775	786	1
747	787	790	2
748	787	788	1
749	788	791	1
750	788	789	1
751	788	794	1
752	789	793	1
753	791	792	1
754	791	795	1
755	791	796	1
756	797	800	2
757	797	798	1
758	798	801	1
759	798	799	1
760	798	806	1
761	799	805	1
762	801	802	1
763	801	807	1
764	801	808	1
765	802	803	1
766	802	804	1
767	802	809	1
768	803	810	1
769	803	811	1
770	803	812	1
771	804	813	1
772	804	814	1
773	804	815	1
774	816	819	2
775	816	817	1
776	817	820	1
777	817	818	1
778	817	825	1
779	818	824	1
780	820	821	1
781	820	826	1
782	820	827	1
783	821	822	2
784	821	823	1
785	828	831	2
786	828	829	1
787	829	832	1
788	829	830	1
789	829	835	1
790	832	833	1
791	832	836	1
792	832	837	1
793	833	834	1
794	833	838	1
795	833	839	1
796	834	830	1
797	834	840	1
798	834	841	1
799	842	845	2
800	842	843	1
801	843	846	1
802	843	844	1
803	843	852	1
804	844	851	1
805	846	847	1
806	846	853	1
807	846	854	1
808	847	848	1
809	847	855	1
810	847	856	1
811	848	849	1
812	848	857	1
813	848	858	1
814	849	850	1
815	849	859	1
816	849	860	1
817	850	861	1
818	850	862	1
819	850	863	1
820	864	867	2
821	864	865	1
822	865	868	1
823	865	866	1
824	865	874	1
825	866	873	1
826	868	869	1
827	868	875	1
828	868	876	1
829	869	870	1
830	869	877	1
831	869	878	1
832	870	871	2
833	870	872	1
834	879	882	2
835	879	880	1
836	880	883	1
837	880	881	1
838	880	888	1
839	881	887	1
840	883	884	1
841	883	889	1
842	883	890	1
843	884	885	2
844	884	886	1
845	886	891	1
846	886	892	1
847	893	896	2
848	893	894	1
849	894	897	1
850	894	895	1
851	894	908	1
852	895	907	1
853	897	898	1
854	897	909	1
855	897	910	1
856	898	899	2
857	898	900	1
858	899	906	1
859	899	911	1
860	900	901	2
861	900	902	1
862	901	903	1
863	901	906	1
864	902	904	2
865	902	913	1
866	903	905	2
867	903	914	1
868	904	905	1
869	904	915	1
870	905	916	1
871	906	912	1
872	917	920	2
873	917	918	1
874	918	921	1
875	918	919	1
876	918	925	1
877	919	924	1
878	921	922	1
879	921	923	1
880	921	926	1
881	922	927	1
882	922	928	1
883	922	929	1
884	923	930	1
885	923	931	1
886	923	932	1
887	933	936	2
888	933	934	1
889	934	937	1
890	934	935	1
891	934	943	1
892	935	942	1
893	937	938	1
894	937	944	1
895	937	945	1
896	938	939	1
897	938	946	1
898	938	947	1
899	939	940	2
900	939	941	1
901	941	948	1
902	941	949	1
903	950	953	2
904	950	951	1
905	951	954	1
906	951	952	1
907	951	962	1
908	952	961	1
909	954	955	1
910	954	963	1
911	954	964	1
912	955	956	1
913	955	965	1
914	955	966	1
915	956	958	1
916	956	967	1
917	956	968	1
918	957	958	1
919	957	959	1
920	957	960	2
921	958	969	1
922	959	970	1
923	959	971	1
924	960	972	1
925	960	973	1
926	974	977	2
927	974	975	1
928	975	978	1
929	975	976	1
930	975	982	1
931	976	981	1
932	978	979	1
933	978	980	1
934	978	983	1
935	979	984	1
936	979	985	1
937	979	986	1
938	980	987	1
939	980	988	1
940	980	989	1
941	990	993	2
942	990	991	1
943	991	994	1
944	991	992	1
945	991	998	1
946	992	997	1
947	994	995	1
948	994	996	1
949	994	999	1
950	995	1000	1
951	995	1001	1
952	995	1002	1
953	996	1003	1
954	996	1004	1
955	996	1005	1
956	1006	1009	2
957	1006	1007	1
958	1007	1010	1
959	1007	1008	1
960	1007	1016	1
961	1008	1015	1
962	1010	1011	1
963	1010	1017	1
964	1010	1018	1
965	1011	1012	1
966	1011	1019	1
967	1011	1020	1
968	1012	1013	2
969	1012	1014	1
970	1021	1024	2
971	1021	1022	1
972	1022	1025	1
973	1022	1023	1
974	1022	1031	1
975	1023	1030	1
976	1025	1026	1
977	1025	1032	1
978	1025	1033	1
979	1026	1027	1
980	1026	1034	1
981	1026	1035	1
982	1027	1028	1
983	1027	1036	1
984	1027	1037	1
985	1028	1029	1
986	1028	1038	1
987	1028	1039	1
988	1029	1040	1
989	1029	1041	1
990	1029	1042	1
991	1043	1046	2
992	1043	1044	1
993	1044	1047	1
994	1044	1045	1
995	1044	1055	1
996	1045	1054	1
997	1047	1048	1
998	1047	1056	1
999	1047	1057	1
1000	1048	1049	1
1001	1048	1050	2
1002	1049	1051	2
1003	1049	1058	1
1004	1050	1052	1
1005	1050	1059	1
1006	1051	1053	1
1007	1051	1060	1
1008	1052	1053	2
1009	1052	1061	1
1010	1053	1062	1
1011	1063	1066	2
1012	1063	1064	1
1013	1064	1067	1
1014	1064	1065	1
1015	1064	1072	1
1016	1065	1071	1
1017	1067	1068	1
1018	1067	1073	1
1019	1067	1074	1
1020	1068	1069	1
1021	1068	1070	1
1022	1068	1075	1
1023	1069	1076	1
1024	1069	1077	1
1025	1069	1078	1
1026	1070	1079	1
1027	1070	1080	1
1028	1070	1081	1
1029	1082	1085	2
1030	1082	1083	1
1031	1083	1086	1
1032	1083	1084	1
1033	1083	1092	1
1034	1084	1091	1
1035	1086	1087	1
1036	1086	1093	1
1037	1086	1094	1
1038	1087	1088	1
1039	1087	1095	1
1040	1087	1096	1
1041	1088	1089	1
1042	1088	1097	1
1043	1088	1098	1
1044	1089	1090	1
1045	1089	1099	1
1046	1089	1100	1
1047	1090	1101	1
1048	1090	1102	1
1049	1090	1103	1
1050	1104	1107	2
1051	1104	1105	1
1052	1105	1108	1
1053	1105	1106	1
1054	1105	1116	1
1055	1106	1115	1
1056	1108	1109	1
1057	1108	1117	1
1058	1108	1118	1
1059	1109	1110	1
1060	1109	1119	1
1061	1109	1120	1
1062	1110	1112	1
1063	1110	1121	1
1064	1110	1122	1
1065	1111	1112	1
1066	1111	1113	1
1067	1111	1114	2
1068	1112	1123	1
1069	1113	1124	1
1070	1113	1125	1
1071	1114	1126	1
1072	1114	1127	1
1073	1128	1131	2
1074	1128	1129	1
1075	1129	1132	1
1076	1129	1130	1
1077	1129	1134	1
1078	1130	1133	1
1079	1132	1135	1
1080	1132	1136	1
1081	1132	1137	1
1082	1138	1141	2
1083	1138	1139	1
1084	1139	1142	1
1085	1139	1140	1
1086	1139	1148	1
1087	1140	1147	1
1088	1142	1143	1
1089	1142	1149	1
1090	1142	1150	1
1091	1143	1144	1
1092	1143	1151	1
1093	1143	1152	1
1094	1144	1145	2
1095	1144	1146	1
1096	1153	1156	2
1097	1153	1154	1
1098	1154	1157	1
1099	1154	1155	1
1100	1154	1162	1
1101	1155	1161	1
1102	1157	1158	1
1103	1157	1163	1
1104	1157	1164	1
1105	1158	1159	2
1106	1158	1160	1
1107	1160	1165	1
1108	1160	1166	1
1109	1167	1170	2
1110	1167	1168	1
1111	1168	1171	1
1112	1168	1169	1
1113	1168	1174	1
1114	1169	1173	1
1115	1171	1172	1
1116	1171	1175	1
1117	1171	1176	1
1118	1172	1177	1
1119	1	12	1
1120	10	34	1
1121	32	49	1
1122	47	68	1
1123	66	92	1
1124	90	102	1
1125	100	119	1
1126	117	129	1
1127	127	148	1
1128	146	170	1
1129	168	184	1
1130	182	205	1
1131	203	216	1
1132	214	238	1
1133	236	252	1
1134	250	272	1
1135	270	289	1
1136	287	303	1
1137	301	325	1
1138	323	345	1
1139	343	364	1
1140	362	386	1
1141	384	401	1
1142	399	420	1
1143	418	444	1
1144	442	460	1
1145	458	479	1
1146	477	494	1
1147	492	505	1
1148	503	512	1
1149	510	526	1
1150	524	543	1
1151	541	553	1
1152	551	563	1
1153	561	577	1
1154	575	591	1
1155	589	606	1
1156	604	625	1
1157	623	644	1
1158	642	660	1
1159	658	682	1
1160	680	701	1
1161	699	712	1
1162	710	724	1
1163	722	731	1
1164	729	755	1
1165	753	770	1
1166	768	789	1
1167	787	799	1
1168	797	818	1
1169	816	830	1
1170	828	844	1
1171	842	866	1
1172	864	881	1
1173	879	895	1
1174	893	919	1
1175	917	935	1
1176	933	952	1
1177	950	976	1
1178	974	992	1
1179	990	1008	1
1180	1006	1023	1
1181	1021	1045	1
1182	1043	1065	1
1183	1063	1084	1
1184	1082	1106	1
1185	1104	1130	1
1186	1128	1140	1
1187	1138	1155	1
1188	1153	1169	1
1189	1178	1181	2
1190	1178	1179	1
1191	1179	1182	1
1192	1179	1180	1
1193	1179	1183	1
1194	1182	1184	1
1195	1182	1185	1
1196	1182	1186	1
1197	1187	1190	2
1198	1187	1188	1
1199	1188	1191	1
1200	1188	1189	1
1201	1188	1197	1
1202	1189	1196	1
1203	1191	1192	1
1204	1191	1198	1
1205	1191	1199	1
1206	1192	1193	1
1207	1192	1200	1
1208	1192	1201	1
1209	1193	1194	1
1210	1193	1202	1
1211	1193	1203	1
1212	1194	1195	1
1213	1194	1204	1
1214	1194	1205	1
1215	1195	1206	1
1216	1195	1207	1
1217	1195	1208	1
1218	1209	1212	2
1219	1209	1210	1
1220	1210	1213	1
1221	1210	1211	1
1222	1210	1219	1
1223	1211	1218	1
1224	1213	1214	1
1225	1213	1220	1
1226	1213	1221	1
1227	1214	1215	1
1228	1214	1222	1
1229	1214	1223	1
1230	1215	1216	2
1231	1215	1217	1
1232	1224	1227	2
1233	1224	1225	1
1234	1225	1228	1
1235	1225	1226	1
1236	1225	1233	1
1237	1226	1232	1
1238	1228	1229	1
1239	1228	1234	1
1240	1228	1235	1
1241	1229	1230	1
1242	1229	1231	1
1243	1229	1236	1
1244	1230	1237	1
1245	1230	1238	1
1246	1230	1239	1
1247	1231	1240	1
1248	1231	1241	1
1249	1231	1242	1
1250	1243	1246	2
1251	1243	1244	1
1252	1244	1247	1
1253	1244	1245	1
1254	1244	1255	1
1255	1245	1254	1
1256	1247	1248	1
1257	1247	1256	1
1258	1247	1257	1
1259	1248	1249	1
1260	1248	1258	1
1261	1248	1259	1
1262	1249	1251	1
1263	1249	1260	1
1264	1249	1261	1
1265	1250	1251	1
1266	1250	1252	1
1267	1250	1253	2
1268	1251	1262	1
1269	1252	1263	1
1270	1252	1264	1
1271	1253	1265	1
1272	1253	1266	1
1273	1267	1270	2
1274	1267	1268	1
1275	1268	1271	1
1276	1268	1269	1
1277	1268	1274	1
1278	1269	1273	1
1279	1271	1272	1
1280	1271	1275	1
1281	1271	1276	1
1282	1277	1280	2
1283	1277	1278	1
1284	1278	1281	1
1285	1278	1279	1
1286	1278	1287	1
1287	1279	1286	1
1288	1281	1282	1
1289	1281	1288	1
1290	1281	1289	1
1291	1282	1283	1
1292	1282	1290	1
1293	1282	1291	1
1294	1283	1284	2
1295	1283	1285	1
1296	1285	1292	1
1297	1285	1293	1
1298	1294	1297	2
1299	1294	1295	1
1300	1295	1298	1
1301	1295	1296	1
1302	1295	1301	1
1303	1296	1300	1
1304	1298	1299	1
1305	1298	1302	1
1306	1298	1303	1
1307	1304	1307	2
1308	1304	1305	1
1309	1305	1308	1
1310	1305	1306	1
1311	1305	1313	1
1312	1306	1312	1
1313	1308	1309	1
1314	1308	1310	1
1315	1308	1314	1
1316	1309	1311	1
1317	1309	1315	1
1318	1309	1316	1
1319	1310	1317	1
1320	1310	1318	1
1321	1310	1319	1
1322	1311	1320	1
1323	1311	1321	1
1324	1311	1322	1
1325	1323	1326	2
1326	1323	1324	1
1327	1324	1327	1
1328	1324	1325	1
1329	1324	1333	1
1330	1325	1332	1
1331	1327	1328	1
1332	1327	1334	1
1333	1327	1335	1
1334	1328	1329	1
1335	1328	1336	1
1336	1328	1337	1
1337	1329	1330	1
1338	1329	1338	1
1339	1329	1339	1
1340	1330	1331	1
1341	1330	1340	1
1342	1330	1341	1
1343	1331	1342	1
1344	1331	1343	1
1345	1331	1344	1
1346	1345	1348	2
1347	1345	1346	1
1348	1346	1349	1
1349	1346	1347	1
1350	1346	1353	1
1351	1347	1352	1
1352	1349	1350	1
1353	1349	1351	1
1354	1349	1354	1
1355	1350	1356	1
1356	1350	1357	1
1357	1350	1358	1
1358	1351	1355	1
1359	1359	1362	2
1360	1359	1360	1
1361	1360	1363	1
1362	1360	1361	1
1363	1360	1372	1
1364	1361	1371	1
1365	1363	1364	1
1366	1363	1373	1
1367	1363	1374	1
1368	1364	1365	1
1369	1364	1366	2
1370	1365	1367	2
1371	1365	1375	1
1372	1366	1368	1
1373	1366	1376	1
1374	1367	1369	1
1375	1367	1377	1
1376	1368	1369	2
1377	1368	1378	1
1378	1369	1370	1
1379	1370	1379	1
1380	1380	1383	2
1381	1380	1381	1
1382	1381	1384	1
1383	1381	1382	1
1384	1381	1387	1
1385	1382	1386	1
1386	1384	1385	1
1387	1384	1388	1
1388	1384	1389	1
1389	1385	1390	1
1390	1391	1394	2
1391	1391	1392	1
1392	1392	1395	1
1393	1392	1393	1
1394	1392	1401	1
1395	1393	1400	1
1396	1395	1396	1
1397	1395	1402	1
1398	1395	1403	1
1399	1396	1397	1
1400	1396	1404	1
1401	1396	1405	1
1402	1397	1398	1
1403	1397	1406	1
1404	1397	1407	1
1405	1398	1399	1
1406	1398	1408	1
1407	1398	1409	1
1408	1399	1410	1
1409	1399	1411	1
1410	1399	1412	1
1411	1413	1416	2
1412	1413	1414	1
1413	1414	1417	1
1414	1414	1415	1
1415	1414	1420	1
1416	1417	1418	1
1417	1417	1421	1
1418	1417	1422	1
1419	1418	1419	1
1420	1418	1423	1
1421	1418	1424	1
1422	1419	1415	1
1423	1419	1425	1
1424	1419	1426	1
1425	1427	1430	2
1426	1427	1428	1
1427	1428	1431	1
1428	1428	1429	1
1429	1428	1439	1
1430	1429	1438	1
1431	1431	1432	1
1432	1431	1440	1
1433	1431	1441	1
1434	1432	1433	1
1435	1432	1434	2
1436	1433	1435	2
1437	1433	1442	1
1438	1434	1436	1
1439	1434	1443	1
1440	1435	1437	1
1441	1435	1444	1
1442	1436	1437	2
1443	1436	1445	1
1444	1437	1446	1
1445	1447	1450	2
1446	1447	1448	1
1447	1448	1451	1
1448	1448	1449	1
1449	1448	1458	1
1450	1449	1457	1
1451	1451	1452	1
1452	1451	1459	1
1453	1451	1460	1
1454	1452	1453	1
1455	1452	1455	2
1456	1453	1454	2
1457	1454	1456	1
1458	1454	1462	1
1459	1455	1456	1
1460	1455	1461	1
1461	1456	1463	1
1462	1464	1467	2
1463	1464	1465	1
1464	1465	1468	1
1465	1465	1466	1
1466	1465	1471	1
1467	1468	1469	1
1468	1468	1472	1
1469	1468	1473	1
1470	1469	1470	1
1471	1469	1474	1
1472	1469	1475	1
1473	1470	1466	1
1474	1470	1476	1
1475	1470	1477	1
1476	1478	1481	2
1477	1478	1479	1
1478	1479	1482	1
1479	1479	1480	1
1480	1479	1488	1
1481	1480	1487	1
1482	1482	1483	1
1483	1482	1489	1
1484	1482	1490	1
1485	1483	1484	1
1486	1483	1491	1
1487	1483	1492	1
1488	1484	1485	1
1489	1484	1493	1
1490	1484	1494	1
1491	1485	1486	1
1492	1485	1495	1
1493	1485	1496	1
1494	1486	1497	1
1495	1486	1498	1
1496	1486	1499	1
1497	1500	1503	2
1498	1500	1501	1
1499	1501	1504	1
1500	1501	1502	1
1501	1501	1512	1
1502	1502	1511	1
1503	1504	1505	1
1504	1504	1513	1
1505	1504	1514	1
1506	1505	1506	1
1507	1505	1507	2
1508	1506	1508	2
1509	1506	1515	1
1510	1507	1509	1
1511	1507	1516	1
1512	1508	1510	1
1513	1508	1517	1
1514	1509	1510	2
1515	1509	1518	1
1516	1510	1519	1
1517	1520	1523	2
1518	1520	1521	1
1519	1521	1524	1
1520	1521	1522	1
1521	1521	1529	1
1522	1522	1528	1
1523	1524	1525	1
1524	1524	1526	1
1525	1524	1530	1
1526	1525	1527	1
1527	1525	1531	1
1528	1525	1532	1
1529	1526	1533	1
1530	1526	1534	1
1531	1526	1535	1
1532	1527	1536	1
1533	1527	1537	1
1534	1527	1538	1
1535	1539	1542	2
1536	1539	1540	1
1537	1540	1543	1
1538	1540	1541	1
1539	1540	1549	1
1540	1541	1548	1
1541	1543	1544	1
1542	1543	1550	1
1543	1543	1551	1
1544	1544	1545	1
1545	1544	1552	1
1546	1544	1553	1
1547	1545	1546	1
1548	1545	1554	1
1549	1545	1555	1
1550	1546	1547	1
1551	1546	1556	1
1552	1546	1557	1
1553	1547	1558	1
1554	1547	1559	1
1555	1547	1560	1
1556	1561	1564	2
1557	1561	1562	1
1558	1562	1565	1
1559	1562	1563	1
1560	1562	1571	1
1561	1563	1570	1
1562	1565	1566	1
1563	1565	1572	1
1564	1565	1573	1
1565	1566	1567	1
1566	1566	1574	1
1567	1566	1575	1
1568	1567	1568	2
1569	1567	1569	1
1570	1576	1579	2
1571	1576	1577	1
1572	1577	1580	1
1573	1577	1578	1
1574	1577	1585	1
1575	1578	1584	1
1576	1580	1581	1
1577	1580	1586	1
1578	1580	1587	1
1579	1581	1582	1
1580	1581	1583	1
1581	1581	1588	1
1582	1582	1589	1
1583	1582	1590	1
1584	1582	1591	1
1585	1583	1592	1
1586	1583	1593	1
1587	1583	1594	1
1588	1595	1598	2
1589	1595	1596	1
1590	1596	1599	1
1591	1596	1597	1
1592	1596	1607	1
1593	1597	1606	1
1594	1599	1600	1
1595	1599	1608	1
1596	1599	1609	1
1597	1600	1601	1
1598	1600	1610	1
1599	1600	1611	1
1600	1601	1603	1
1601	1601	1612	1
1602	1601	1613	1
1603	1602	1603	1
1604	1602	1604	1
1605	1602	1605	2
1606	1603	1614	1
1607	1604	1615	1
1608	1604	1616	1
1609	1605	1617	1
1610	1605	1618	1
1611	1619	1622	2
1612	1619	1620	1
1613	1620	1623	1
1614	1620	1621	1
1615	1620	1627	1
1616	1621	1626	1
1617	1623	1624	1
1618	1623	1625	1
1619	1623	1628	1
1620	1624	1629	1
1621	1624	1630	1
1622	1624	1631	1
1623	1625	1632	1
1624	1625	1633	1
1625	1625	1634	1
1626	1635	1638	2
1627	1635	1636	1
1628	1636	1639	1
1629	1636	1637	1
1630	1636	1644	1
1631	1637	1643	1
1632	1639	1640	1
1633	1639	1641	1
1634	1639	1645	1
1635	1640	1642	1
1636	1640	1646	1
1637	1640	1647	1
1638	1641	1648	1
1639	1641	1649	1
1640	1641	1650	1
1641	1642	1651	1
1642	1642	1652	1
1643	1642	1653	1
1644	1654	1657	2
1645	1654	1655	1
1646	1655	1658	1
1647	1655	1656	1
1648	1655	1664	1
1649	1656	1663	1
1650	1658	1659	1
1651	1658	1665	1
1652	1658	1666	1
1653	1659	1660	1
1654	1659	1667	1
1655	1659	1668	1
1656	1660	1661	2
1657	1660	1662	1
1658	1669	1672	2
1659	1669	1670	1
1660	1670	1673	1
1661	1670	1671	1
1662	1670	1676	1
1663	1671	1675	1
1664	1673	1674	1
1665	1673	1677	1
1666	1673	1678	1
1667	1674	1679	1
1668	1680	1683	2
1669	1680	1681	1
1670	1681	1682	1
1671	1681	1685	1
1672	1681	1686	1
1673	1682	1684	1
1674	1687	1690	2
1675	1687	1688	1
1676	1688	1691	1
1677	1688	1689	1
1678	1688	1694	1
1679	1691	1692	1
1680	1691	1695	1
1681	1691	1696	1
1682	1692	1693	1
1683	1692	1697	1
1684	1692	1698	1
1685	1693	1689	1
1686	1693	1699	1
1687	1693	1700	1
1688	1701	1704	2
1689	1701	1702	1
1690	1702	1705	1
1691	1702	1703	1
1692	1702	1712	1
1693	1703	1711	1
1694	1705	1706	1
1695	1705	1713	1
1696	1705	1714	1
1697	1706	1707	1
1698	1706	1709	2
1699	1707	1708	2
1700	1707	1715	1
1701	1708	1710	1
1702	1708	1717	1
1703	1709	1710	1
1704	1709	1716	1
1705	1718	1721	2
1706	1718	1719	1
1707	1719	1722	1
1708	1719	1720	1
1709	1719	1725	1
1710	1720	1724	1
1711	1722	1723	1
1712	1722	1726	1
1713	1722	1727	1
1714	1728	1731	2
1715	1728	1729	1
1716	1729	1732	1
1717	1729	1730	1
1718	1729	1734	1
1719	1730	1733	1
1720	1732	1735	1
1721	1732	1736	1
1722	1732	1737	1
1723	1738	1741	2
1724	1738	1739	1
1725	1739	1742	1
1726	1739	1740	1
1727	1739	1747	1
1728	1740	1746	1
1729	1742	1743	1
1730	1742	1748	1
1731	1742	1749	1
1732	1743	1744	2
1733	1743	1745	1
1734	1745	1750	1
1735	1745	1751	1
1736	1752	1755	2
1737	1752	1753	1
1738	1753	1756	1
1739	1753	1754	1
1740	1753	1760	1
1741	1754	1759	1
1742	1756	1757	1
1743	1756	1758	1
1744	1756	1761	1
1745	1757	1763	1
1746	1757	1764	1
1747	1757	1765	1
1748	1758	1762	1
1749	1766	1769	2
1750	1766	1767	1
1751	1767	1770	1
1752	1767	1768	1
1753	1767	1776	1
1754	1768	1775	1
1755	1770	1771	1
1756	1770	1777	1
1757	1770	1778	1
1758	1771	1772	1
1759	1771	1779	1
1760	1771	1780	1
1761	1772	1773	2
1762	1772	1774	1
1763	1781	1784	2
1764	1781	1782	1
1765	1782	1785	1
1766	1782	1783	1
1767	1782	1790	1
1768	1783	1789	1
1769	1785	1786	1
1770	1785	1787	1
1771	1785	1791	1
1772	1786	1788	1
1773	1786	1792	1
1774	1786	1793	1
1775	1787	1794	1
1776	1787	1795	1
1777	1787	1796	1
1778	1788	1797	1
1779	1788	1798	1
1780	1788	1799	1
1781	1800	1803	2
1782	1800	1801	1
1783	1801	1804	1
1784	1801	1802	1
1785	1801	1809	1
1786	1802	1808	1
1787	1804	1805	1
1788	1804	1806	1
1789	1804	1810	1
1790	1805	1807	1
1791	1805	1811	1
1792	1805	1812	1
1793	1806	1813	1
1794	1806	1814	1
1795	1806	1815	1
1796	1807	1816	1
1797	1807	1817	1
1798	1807	1818	1
1799	1819	1822	2
1800	1819	1820	1
1801	1820	1823	1
1802	1820	1821	1
1803	1820	1827	1
1804	1821	1826	1
1805	1823	1824	1
1806	1823	1825	1
1807	1823	1828	1
1808	1824	1829	1
1809	1824	1830	1
1810	1824	1831	1
1811	1825	1832	1
1812	1825	1833	1
1813	1825	1834	1
1814	1835	1838	2
1815	1835	1836	1
1816	1836	1839	1
1817	1836	1837	1
1818	1836	1845	1
1819	1837	1844	1
1820	1839	1840	1
1821	1839	1846	1
1822	1839	1847	1
1823	1840	1841	1
1824	1840	1848	1
1825	1840	1849	1
1826	1841	1842	1
1827	1841	1850	1
1828	1841	1851	1
1829	1842	1843	1
1830	1842	1852	1
1831	1842	1853	1
1832	1843	1854	1
1833	1843	1855	1
1834	1843	1856	1
1835	1857	1860	2
1836	1857	1858	1
1837	1858	1861	1
1838	1858	1859	1
1839	1858	1866	1
1840	1859	1865	1
1841	1861	1862	1
1842	1861	1867	1
1843	1861	1868	1
1844	1862	1863	1
1845	1862	1864	1
1846	1862	1869	1
1847	1863	1870	1
1848	1863	1871	1
1849	1863	1872	1
1850	1864	1873	1
1851	1864	1874	1
1852	1864	1875	1
1853	1876	1879	2
1854	1876	1877	1
1855	1877	1880	1
1856	1877	1878	1
1857	1877	1883	1
1858	1878	1882	1
1859	1880	1881	1
1860	1880	1884	1
1861	1880	1885	1
1862	1881	1886	1
1863	1887	1890	2
1864	1887	1888	1
1865	1888	1891	1
1866	1888	1889	1
1867	1888	1896	1
1868	1889	1895	1
1869	1891	1892	1
1870	1891	1897	1
1871	1891	1898	1
1872	1892	1893	2
1873	1892	1894	1
1874	1899	1902	2
1875	1899	1900	1
1876	1900	1901	1
1877	1900	1904	1
1878	1900	1905	1
1879	1901	1903	1
1880	1906	1909	2
1881	1906	1907	1
1882	1907	1910	1
1883	1907	1908	1
1884	1907	1918	1
1885	1908	1917	1
1886	1910	1911	1
1887	1910	1919	1
1888	1910	1920	1
1889	1911	1912	1
1890	1911	1921	1
1891	1911	1922	1
1892	1912	1914	1
1893	1912	1923	1
1894	1912	1924	1
1895	1913	1914	1
1896	1913	1915	1
1897	1913	1916	2
1898	1914	1925	1
1899	1915	1926	1
1900	1915	1927	1
1901	1916	1928	1
1902	1916	1929	1
1903	1930	1933	2
1904	1930	1931	1
1905	1931	1934	1
1906	1931	1932	1
1907	1931	1940	1
1908	1932	1939	1
1909	1934	1935	1
1910	1934	1941	1
1911	1934	1942	1
1912	1935	1936	1
1913	1935	1943	1
1914	1935	1944	1
1915	1936	1937	2
1916	1936	1938	1
1917	1945	1948	2
1918	1945	1946	1
1919	1946	1949	1
1920	1946	1947	1
1921	1946	1954	1
1922	1947	1953	1
1923	1949	1950	1
1924	1949	1955	1
1925	1949	1956	1
1926	1950	1951	1
1927	1950	1952	1
1928	1950	1957	1
1929	1951	1958	1
1930	1951	1959	1
1931	1951	1960	1
1932	1952	1961	1
1933	1952	1962	1
1934	1952	1963	1
1935	1964	1967	2
1936	1964	1965	1
1937	1965	1968	1
1938	1965	1966	1
1939	1965	1971	1
1940	1966	1970	1
1941	1968	1969	1
1942	1968	1972	1
1943	1968	1973	1
1944	1974	1977	2
1945	1974	1975	1
1946	1975	1978	1
1947	1975	1976	1
1948	1975	1983	1
1949	1976	1982	1
1950	1978	1979	1
1951	1978	1984	1
1952	1978	1985	1
1953	1979	1980	1
1954	1979	1981	1
1955	1979	1986	1
1956	1980	1987	1
1957	1980	1988	1
1958	1980	1989	1
1959	1981	1990	1
1960	1981	1991	1
1961	1981	1992	1
1962	1993	1996	2
1963	1993	1994	1
1964	1994	1997	1
1965	1994	1995	1
1966	1994	2002	1
1967	1995	2001	1
1968	1997	1998	1
1969	1997	2003	1
1970	1997	2004	1
1971	1998	1999	2
1972	1998	2000	1
1973	2005	2008	2
1974	2005	2006	1
1975	2006	2009	1
1976	2006	2007	1
1977	2006	2012	1
1978	2009	2010	1
1979	2009	2013	1
1980	2009	2014	1
1981	2010	2011	1
1982	2010	2015	1
1983	2010	2016	1
1984	2011	2007	1
1985	2011	2017	1
1986	2011	2018	1
1987	2019	2022	2
1988	2019	2020	1
1989	2020	2023	1
1990	2020	2021	1
1991	2020	2029	1
1992	2021	2028	1
1993	2023	2024	1
1994	2023	2030	1
1995	2023	2031	1
1996	2024	2025	1
1997	2024	2032	1
1998	2024	2033	1
1999	2025	2026	1
2000	2025	2034	1
2001	2025	2035	1
2002	2026	2027	1
2003	2026	2036	1
2004	2026	2037	1
2005	2027	2038	1
2006	2027	2039	1
2007	2027	2040	1
2008	2041	2044	2
2009	2041	2042	1
2010	2042	2045	1
2011	2042	2043	1
2012	2042	2051	1
2013	2043	2050	1
2014	2045	2046	1
2015	2045	2052	1
2016	2045	2053	1
2017	2046	2047	1
2018	2046	2054	1
2019	2046	2055	1
2020	2047	2048	2
2021	2047	2049	1
2022	2056	2059	2
2023	2056	2057	1
2024	2057	2060	1
2025	2057	2058	1
2026	2057	2065	1
2027	2058	2064	1
2028	2060	2061	1
2029	2060	2066	1
2030	2060	2067	1
2031	2061	2062	2
2032	2061	2063	1
2033	2063	2068	1
2034	2063	2069	1
2035	2070	2073	2
2036	2070	2071	1
2037	2071	2074	1
2038	2071	2072	1
2039	2071	2085	1
2040	2072	2084	1
2041	2074	2075	1
2042	2074	2086	1
2043	2074	2087	1
2044	2075	2076	2
2045	2075	2077	1
2046	2076	2083	1
2047	2076	2088	1
2048	2077	2078	2
2049	2077	2079	1
2050	2078	2080	1
2051	2078	2083	1
2052	2079	2081	2
2053	2079	2090	1
2054	2080	2082	2
2055	2080	2091	1
2056	2081	2082	1
2057	2081	2092	1
2058	2082	2093	1
2059	2083	2089	1
2060	2094	2097	2
2061	2094	2095	1
2062	2095	2098	1
2063	2095	2096	1
2064	2095	2102	1
2065	2096	2101	1
2066	2098	2099	1
2067	2098	2100	1
2068	2098	2103	1
2069	2099	2104	1
2070	2099	2105	1
2071	2099	2106	1
2072	2100	2107	1
2073	2100	2108	1
2074	2100	2109	1
2075	2110	2113	2
2076	2110	2111	1
2077	2111	2114	1
2078	2111	2112	1
2079	2111	2120	1
2080	2112	2119	1
2081	2114	2115	1
2082	2114	2121	1
2083	2114	2122	1
2084	2115	2116	1
2085	2115	2123	1
2086	2115	2124	1
2087	2116	2117	2
2088	2116	2118	1
2089	2118	2125	1
2090	2118	2126	1
2091	2127	2130	2
2092	2127	2128	1
2093	2128	2131	1
2094	2128	2129	1
2095	2128	2139	1
2096	2129	2138	1
2097	2131	2132	1
2098	2131	2140	1
2099	2131	2141	1
2100	2132	2133	1
2101	2132	2142	1
2102	2132	2143	1
2103	2133	2135	1
2104	2133	2144	1
2105	2133	2145	1
2106	2134	2135	1
2107	2134	2136	1
2108	2134	2137	2
2109	2135	2146	1
2110	2136	2147	1
2111	2136	2148	1
2112	2137	2149	1
2113	2137	2150	1
2114	2151	2154	2
2115	2151	2152	1
2116	2152	2155	1
2117	2152	2153	1
2118	2152	2159	1
2119	2153	2158	1
2120	2155	2156	1
2121	2155	2157	1
2122	2155	2160	1
2123	2156	2161	1
2124	2156	2162	1
2125	2156	2163	1
2126	2157	2164	1
2127	2157	2165	1
2128	2157	2166	1
2129	2167	2170	2
2130	2167	2168	1
2131	2168	2171	1
2132	2168	2169	1
2133	2168	2175	1
2134	2169	2174	1
2135	2171	2172	1
2136	2171	2173	1
2137	2171	2176	1
2138	2172	2177	1
2139	2172	2178	1
2140	2172	2179	1
2141	2173	2180	1
2142	2173	2181	1
2143	2173	2182	1
2144	2183	2186	2
2145	2183	2184	1
2146	2184	2187	1
2147	2184	2185	1
2148	2184	2193	1
2149	2185	2192	1
2150	2187	2188	1
2151	2187	2194	1
2152	2187	2195	1
2153	2188	2189	1
2154	2188	2196	1
2155	2188	2197	1
2156	2189	2190	2
2157	2189	2191	1
2158	2198	2201	2
2159	2198	2199	1
2160	2199	2202	1
2161	2199	2200	1
2162	2199	2208	1
2163	2200	2207	1
2164	2202	2203	1
2165	2202	2209	1
2166	2202	2210	1
2167	2203	2204	1
2168	2203	2211	1
2169	2203	2212	1
2170	2204	2205	1
2171	2204	2213	1
2172	2204	2214	1
2173	2205	2206	1
2174	2205	2215	1
2175	2205	2216	1
2176	2206	2217	1
2177	2206	2218	1
2178	2206	2219	1
2179	2220	2223	2
2180	2220	2221	1
2181	2221	2224	1
2182	2221	2222	1
2183	2221	2232	1
2184	2222	2231	1
2185	2224	2225	1
2186	2224	2233	1
2187	2224	2234	1
2188	2225	2226	1
2189	2225	2227	2
2190	2226	2228	2
2191	2226	2235	1
2192	2227	2229	1
2193	2227	2236	1
2194	2228	2230	1
2195	2228	2237	1
2196	2229	2230	2
2197	2229	2238	1
2198	2230	2239	1
2199	2240	2243	2
2200	2240	2241	1
2201	2241	2244	1
2202	2241	2242	1
2203	2241	2249	1
2204	2242	2248	1
2205	2244	2245	1
2206	2244	2250	1
2207	2244	2251	1
2208	2245	2246	1
2209	2245	2247	1
2210	2245	2252	1
2211	2246	2253	1
2212	2246	2254	1
2213	2246	2255	1
2214	2247	2256	1
2215	2247	2257	1
2216	2247	2258	1
2217	2259	2262	2
2218	2259	2260	1
2219	2260	2263	1
2220	2260	2261	1
2221	2260	2269	1
2222	2261	2268	1
2223	2263	2264	1
2224	2263	2270	1
2225	2263	2271	1
2226	2264	2265	1
2227	2264	2272	1
2228	2264	2273	1
2229	2265	2266	1
2230	2265	2274	1
2231	2265	2275	1
2232	2266	2267	1
2233	2266	2276	1
2234	2266	2277	1
2235	2267	2278	1
2236	2267	2279	1
2237	2267	2280	1
2238	2281	2284	2
2239	2281	2282	1
2240	2282	2285	1
2241	2282	2283	1
2242	2282	2293	1
2243	2283	2292	1
2244	2285	2286	1
2245	2285	2294	1
2246	2285	2295	1
2247	2286	2287	1
2248	2286	2296	1
2249	2286	2297	1
2250	2287	2289	1
2251	2287	2298	1
2252	2287	2299	1
2253	2288	2289	1
2254	2288	2290	1
2255	2288	2291	2
2256	2289	2300	1
2257	2290	2301	1
2258	2290	2302	1
2259	2291	2303	1
2260	2291	2304	1
2261	2305	2308	2
2262	2305	2306	1
2263	2306	2309	1
2264	2306	2307	1
2265	2306	2311	1
2266	2307	2310	1
2267	2309	2312	1
2268	2309	2313	1
2269	2309	2314	1
2270	2315	2318	2
2271	2315	2316	1
2272	2316	2319	1
2273	2316	2317	1
2274	2316	2325	1
2275	2317	2324	1
2276	2319	2320	1
2277	2319	2326	1
2278	2319	2327	1
2279	2320	2321	1
2280	2320	2328	1
2281	2320	2329	1
2282	2321	2322	2
2283	2321	2323	1
2284	2330	2333	2
2285	2330	2331	1
2286	2331	2334	1
2287	2331	2332	1
2288	2331	2339	1
2289	2332	2338	1
2290	2334	2335	1
2291	2334	2340	1
2292	2334	2341	1
2293	2335	2336	2
2294	2335	2337	1
2295	2337	2342	1
2296	2337	2343	1
2297	2344	2347	2
2298	2344	2345	1
2299	2345	2348	1
2300	2345	2346	1
2301	2345	2351	1
2302	2346	2350	1
2303	2348	2349	1
2304	2348	2352	1
2305	2348	2353	1
2306	2349	2354	1
2307	1178	1189	1
2308	1187	1211	1
2309	1209	1226	1
2310	1224	1245	1
2311	1243	1269	1
2312	1267	1279	1
2313	1277	1296	1
2314	1294	1306	1
2315	1304	1325	1
2316	1323	1347	1
2317	1345	1361	1
2318	1359	1382	1
2319	1380	1393	1
2320	1391	1415	1
2321	1413	1429	1
2322	1427	1449	1
2323	1447	1466	1
2324	1464	1480	1
2325	1478	1502	1
2326	1500	1522	1
2327	1520	1541	1
2328	1539	1563	1
2329	1561	1578	1
2330	1576	1597	1
2331	1595	1621	1
2332	1619	1637	1
2333	1635	1656	1
2334	1654	1671	1
2335	1669	1682	1
2336	1680	1689	1
2337	1687	1703	1
2338	1701	1720	1
2339	1718	1730	1
2340	1728	1740	1
2341	1738	1754	1
2342	1752	1768	1
2343	1766	1783	1
2344	1781	1802	1
2345	1800	1821	1
2346	1819	1837	1
2347	1835	1859	1
2348	1857	1878	1
2349	1876	1889	1
2350	1887	1901	1
2351	1899	1908	1
2352	1906	1932	1
2353	1930	1947	1
2354	1945	1966	1
2355	1964	1976	1
2356	1974	1995	1
2357	1993	2007	1
2358	2005	2021	1
2359	2019	2043	1
2360	2041	2058	1
2361	2056	2072	1
2362	2070	2096	1
2363	2094	2112	1
2364	2110	2129	1
2365	2127	2153	1
2366	2151	2169	1
2367	2167	2185	1
2368	2183	2200	1
2369	2198	2222	1
2370	2220	2242	1
2371	2240	2261	1
2372	2259	2283	1
2373	2281	2307	1
2374	2305	2317	1
2375	2315	2332	1
2376	2330	2346	1
@<TRIPOS>SUBSTRUCTURE
1	fragment1	1
2	fragment2	1178
@<TRIPOS>MOLECULE

0 0 0
SMALL
USER_CHARGES
@<TRIPOS>ATOM
@<TRIPOS>BOND
@<TRIPOS>SUBSTRUCTURE
